@<TRIPOS>MOLECULE
1
    37     39      1
SMALL
USER_CHARGES
@<TRIPOS>ATOM
      1  O          27.5742    1.5579  -11.2202 O.3       1 MOL1        0.0000
      2  C          27.1479    0.2994  -11.6692 C.3       1 MOL1        0.0000
      3  C          26.5267    0.4129  -13.0689 C.3       1 MOL1        0.0000
      4  C          25.0255    0.5956  -12.8327 C.3       1 MOL1        0.0000
      5  C          24.8103   -0.0581  -11.4965 C.ar      1 MOL1        0.0000
      6  C          26.0181   -0.2298  -10.8141 C.ar      1 MOL1        0.0000
      7  C          26.0198   -0.7704   -9.5145 C.ar      1 MOL1        0.0000
      8  C          24.8035   -1.0882   -8.9011 C.ar      1 MOL1        0.0000
      9  C          23.6009   -0.9385   -9.5957 C.ar      1 MOL1        0.0000
     10  C          23.6036   -0.4366  -10.9003 C.ar      1 MOL1        0.0000
     11  O          22.4827   -0.2805  -11.6905 O.3       1 MOL1        0.0000
     12  C          21.2459   -0.5698  -11.1900 C.ar      1 MOL1        0.0000
     13  C          20.6772   -1.8289  -11.4014 C.ar      1 MOL1        0.0000
     14  C          19.4177   -2.1113  -10.8689 C.ar      1 MOL1        0.0000
     15  F          18.8580   -3.3210  -11.0596 F         1 MOL1        0.0000
     16  C          18.7347   -1.1397  -10.1326 C.ar      1 MOL1        0.0000
     17  C          19.2914    0.1220   -9.9508 C.ar      1 MOL1        0.0000
     18  CL         18.4240    1.3427   -9.0840 Cl        1 MOL1        0.0000
     19  C          20.5582    0.4039  -10.4599 C.ar      1 MOL1        0.0000
     20  S          27.5319   -1.0654   -8.5874 S.3       1 MOL1        0.0000
     21  O          27.2277   -2.0226   -7.5192 O.2       1 MOL1        0.0000
     22  O          28.5861   -1.3956   -9.5458 O.2       1 MOL1        0.0000
     23  C          27.9385    0.6243   -7.8274 C.3       1 MOL1        0.0000
     24  F          27.8181    1.5522   -8.7360 F         1 MOL1        0.0000
     25  F          27.1029    0.8106   -6.7934 F         1 MOL1        0.0000
     26  H          28.3584    1.8102  -11.7281 H         1 MOL1        0.0000
     27  H          27.9789   -0.4080  -11.7029 H         1 MOL1        0.0000
     28  H          26.6995   -0.5291  -13.6482 H         1 MOL1        0.0000
     29  H          26.9532    1.2021  -13.6359 H         1 MOL1        0.0000
     30  H          24.7973    1.6781  -12.7806 H         1 MOL1        0.0000
     31  H          24.4358    0.1715  -13.6220 H         1 MOL1        0.0000
     32  H          24.7794   -1.4657   -7.8911 H         1 MOL1        0.0000
     33  H          22.6812   -1.2310   -9.1144 H         1 MOL1        0.0000
     34  H          21.2080   -2.5850  -11.9555 H         1 MOL1        0.0000
     35  H          17.7898   -1.3917   -9.6972 H         1 MOL1        0.0000
     36  H          20.9983    1.3636  -10.2576 H         1 MOL1        0.0000
     37  H          28.9678    0.5905   -7.4583 H         1 MOL1        0.0000
@<TRIPOS>BOND
     1      1      2 1 
     2      2      3 1 
     3      2      6 1 
     4      3      4 1 
     5      4      5 1 
     6      5      6 ar
     7      5     10 ar
     8      6      7 ar
     9      7      8 ar
    10      7     20 1 
    11      8      9 ar
    12      9     10 ar
    13     10     11 1 
    14     11     12 1 
    15     12     13 ar
    16     12     19 ar
    17     13     14 ar
    18     14     15 1 
    19     14     16 ar
    20     16     17 ar
    21     17     18 1 
    22     17     19 ar
    23     20     21 2 
    24     20     22 2 
    25     20     23 1 
    26     23     24 1 
    27     23     25 1 
    28      1     26 1 
    29      2     27 1 
    30      3     28 1 
    31      3     29 1 
    32      4     30 1 
    33      4     31 1 
    34      8     32 1 
    35      9     33 1 
    36     13     34 1 
    37     16     35 1 
    38     19     36 1 
    39     23     37 1 
@<TRIPOS>SUBSTRUCTURE
     1 MOL1         1 MOLECULE 1 A  MOL 
# Molecule written by the XED library from Cresset
