@<TRIPOS>MOLECULE
155
    38     40      1
SMALL
USER_CHARGES
@<TRIPOS>ATOM
      1  O          27.5494    1.5659  -11.2067 O.3       1 MOL1        0.0000
      2  C          27.1387    0.3127  -11.6756 C.3       1 MOL1        0.0000
      3  C          26.5195    0.3859  -13.0738 C.3       1 MOL1        0.0000
      4  C          25.0304    0.6044  -12.8406 C.3       1 MOL1        0.0000
      5  C          24.8061   -0.0723  -11.5018 C.ar      1 MOL1        0.0000
      6  C          26.0164   -0.2280  -10.8172 C.ar      1 MOL1        0.0000
      7  C          26.0250   -0.7653   -9.5189 C.ar      1 MOL1        0.0000
      8  C          24.8069   -1.0884   -8.9105 C.ar      1 MOL1        0.0000
      9  C          23.6125   -0.9394   -9.5957 C.ar      1 MOL1        0.0000
     10  C          23.6090   -0.4330  -10.9057 C.ar      1 MOL1        0.0000
     11  O          22.4875   -0.2786  -11.6860 O.3       1 MOL1        0.0000
     12  C          21.2486   -0.5699  -11.1809 C.ar      1 MOL1        0.0000
     13  C          20.6770   -1.8256  -11.3995 C.ar      1 MOL1        0.0000
     14  C          19.4179   -2.1080  -10.8727 C.ar      1 MOL1        0.0000
     15  C          18.7289   -1.1532  -10.1417 C.ar      1 MOL1        0.0000
     16  C          19.3023    0.1333   -9.9545 C.ar      1 MOL1        0.0000
     17  C          18.5710    1.1634   -9.2382 C.1       1 MOL1        0.0000
     18  C          20.5526    0.3882  -10.4464 C.ar      1 MOL1        0.0000
     19  S          27.5350   -1.0542   -8.5888 S.3       1 MOL1        0.0000
     20  O          27.2245   -2.0103   -7.5175 O.2       1 MOL1        0.0000
     21  O          28.5876   -1.3949   -9.5469 O.2       1 MOL1        0.0000
     22  C          27.9675    0.6084   -7.8120 C.3       1 MOL1        0.0000
     23  F          27.8916    1.5374   -8.7619 F         1 MOL1        0.0000
     24  F          27.1087    0.8486   -6.8235 F         1 MOL1        0.0000
     25  N          18.0096    1.9978   -8.6641 N.1       1 MOL1        0.0000
     26  F          18.8612   -3.3248  -11.0680 F         1 MOL1        0.0000
     27  H          28.3285    1.8440  -11.7146 H         1 MOL1        0.0000
     28  H          27.9831   -0.3652  -11.7079 H         1 MOL1        0.0000
     29  H          26.9486    1.2013  -13.6586 H         1 MOL1        0.0000
     30  H          26.7016   -0.5357  -13.6445 H         1 MOL1        0.0000
     31  H          24.4372    0.1594  -13.6425 H         1 MOL1        0.0000
     32  H          24.7828    1.6653  -12.7799 H         1 MOL1        0.0000
     33  H          24.7866   -1.4665   -7.8955 H         1 MOL1        0.0000
     34  H          22.6845   -1.2110   -9.1051 H         1 MOL1        0.0000
     35  H          21.2122   -2.5863  -11.9511 H         1 MOL1        0.0000
     36  H          17.7861   -1.4111   -9.7045 H         1 MOL1        0.0000
     37  H          21.0278    1.3625  -10.2649 H         1 MOL1        0.0000
     38  H          28.9817    0.5496   -7.4392 H         1 MOL1        0.0000
@<TRIPOS>BOND
     1      1      2 1 
     2      2      3 1 
     3      2      6 1 
     4      3      4 1 
     5      4      5 1 
     6      5      6 ar
     7      5     10 ar
     8      6      7 ar
     9      7      8 ar
    10      7     19 1 
    11      8      9 ar
    12      9     10 ar
    13     10     11 1 
    14     11     12 1 
    15     12     13 ar
    16     12     18 ar
    17     13     14 ar
    18     14     15 ar
    19     14     26 1 
    20     15     16 ar
    21     16     17 1 
    22     16     18 ar
    23     17     25 3 
    24     19     20 2 
    25     19     21 2 
    26     19     22 1 
    27     22     23 1 
    28     22     24 1 
    29      1     27 1 
    30      2     28 1 
    31      3     29 1 
    32      3     30 1 
    33      4     31 1 
    34      4     32 1 
    35      8     33 1 
    36      9     34 1 
    37     13     35 1 
    38     15     36 1 
    39     18     37 1 
    40     22     38 1 
@<TRIPOS>SUBSTRUCTURE
     1 MOL1         1 MOLECULE 1 A  MOL 
# Molecule written by the XED library from Cresset
