@<TRIPOS>MOLECULE
156
    38     40      1
SMALL
USER_CHARGES
@<TRIPOS>ATOM
      1  O          27.5805    1.5534  -11.2532 O.3       1 MOL1        0.0000
      2  C          27.1501    0.2775  -11.6687 C.3       1 MOL1        0.0000
      3  C          26.5293    0.4064  -13.0572 C.3       1 MOL1        0.0000
      4  C          25.0376    0.6062  -12.8261 C.3       1 MOL1        0.0000
      5  C          24.8055   -0.0621  -11.4896 C.ar      1 MOL1        0.0000
      6  C          26.0115   -0.2357  -10.8045 C.ar      1 MOL1        0.0000
      7  C          26.0133   -0.7776   -9.5085 C.ar      1 MOL1        0.0000
      8  C          24.7953   -1.0889   -8.8985 C.ar      1 MOL1        0.0000
      9  C          23.5968   -0.9351   -9.5925 C.ar      1 MOL1        0.0000
     10  C          23.5998   -0.4290  -10.8992 C.ar      1 MOL1        0.0000
     11  O          22.4856   -0.2941  -11.6969 O.3       1 MOL1        0.0000
     12  C          21.2434   -0.5785  -11.2009 C.ar      1 MOL1        0.0000
     13  C          20.6719   -1.8357  -11.4023 C.ar      1 MOL1        0.0000
     14  C          19.4175   -2.1171  -10.8625 C.ar      1 MOL1        0.0000
     15  C          18.7315   -1.1381  -10.1404 C.ar      1 MOL1        0.0000
     16  C          19.2888    0.1333   -9.9695 C.ar      1 MOL1        0.0000
     17  C          18.5741    1.1692   -9.2318 C.1       1 MOL1        0.0000
     18  C          20.5530    0.4006  -10.4887 C.ar      1 MOL1        0.0000
     19  S          27.5308   -1.0719   -8.5932 S.3       1 MOL1        0.0000
     20  O          27.2325   -2.0223   -7.5182 O.2       1 MOL1        0.0000
     21  O          28.5832   -1.4111   -9.5503 O.2       1 MOL1        0.0000
     22  C          27.9414    0.6033   -7.8192 C.3       1 MOL1        0.0000
     23  F          27.8101    1.5688   -8.7107 F         1 MOL1        0.0000
     24  F          27.0858    0.8173   -6.8182 F         1 MOL1        0.0000
     25  N          18.0126    1.9813   -8.6297 N.1       1 MOL1        0.0000
     26  H          28.3766    1.8137  -11.7472 H         1 MOL1        0.0000
     27  H          27.9769   -0.4329  -11.6977 H         1 MOL1        0.0000
     28  H          26.9654    1.2263  -13.6309 H         1 MOL1        0.0000
     29  H          26.6920   -0.5061  -13.6310 H         1 MOL1        0.0000
     30  H          24.4251    0.1733  -13.6149 H         1 MOL1        0.0000
     31  H          24.8057    1.6727  -12.7825 H         1 MOL1        0.0000
     32  H          24.7760   -1.4711   -7.8880 H         1 MOL1        0.0000
     33  H          22.6732   -1.2370   -9.1205 H         1 MOL1        0.0000
     34  H          21.2057   -2.5939  -11.9585 H         1 MOL1        0.0000
     35  H          18.9791   -3.0947  -11.0040 H         1 MOL1        0.0000
     36  H          17.7706   -1.3798   -9.7130 H         1 MOL1        0.0000
     37  H          21.0174    1.3656  -10.3389 H         1 MOL1        0.0000
     38  H          28.9665    0.5981   -7.4687 H         1 MOL1        0.0000
@<TRIPOS>BOND
     1      1      2 1 
     2      2      3 1 
     3      2      6 1 
     4      3      4 1 
     5      4      5 1 
     6      5      6 ar
     7      5     10 ar
     8      6      7 ar
     9      7      8 ar
    10      7     19 1 
    11      8      9 ar
    12      9     10 ar
    13     10     11 1 
    14     11     12 1 
    15     12     13 ar
    16     12     18 ar
    17     13     14 ar
    18     14     15 ar
    19     15     16 ar
    20     16     17 1 
    21     16     18 ar
    22     17     25 3 
    23     19     20 2 
    24     19     21 2 
    25     19     22 1 
    26     22     23 1 
    27     22     24 1 
    28      1     26 1 
    29      2     27 1 
    30      3     28 1 
    31      3     29 1 
    32      4     30 1 
    33      4     31 1 
    34      8     32 1 
    35      9     33 1 
    36     13     34 1 
    37     14     35 1 
    38     15     36 1 
    39     18     37 1 
    40     22     38 1 
@<TRIPOS>SUBSTRUCTURE
     1 MOL1         1 MOLECULE 1 A  MOL 
# Molecule written by the XED library from Cresset
