@<TRIPOS>MOLECULE
163
    38     40      1
SMALL
USER_CHARGES
@<TRIPOS>ATOM
      1  O          27.5787    1.5603  -11.1550 O.3       1 MOL1        0.0000
      2  C          27.1514    0.3087  -11.6602 C.3       1 MOL1        0.0000
      3  C          26.5211    0.3751  -13.0576 C.3       1 MOL1        0.0000
      4  C          25.0338    0.5863  -12.8456 C.3       1 MOL1        0.0000
      5  C          24.8061   -0.0850  -11.5041 C.ar      1 MOL1        0.0000
      6  C          26.0164   -0.2498  -10.8166 C.ar      1 MOL1        0.0000
      7  C          26.0198   -0.7868   -9.5184 C.ar      1 MOL1        0.0000
      8  C          24.8022   -1.0984   -8.9082 C.ar      1 MOL1        0.0000
      9  C          23.6047   -0.9287   -9.5876 C.ar      1 MOL1        0.0000
     10  C          23.6011   -0.4346  -10.8994 C.ar      1 MOL1        0.0000
     11  O          22.4804   -0.2663  -11.6771 O.3       1 MOL1        0.0000
     12  C          21.2449   -0.5687  -11.1803 C.ar      1 MOL1        0.0000
     13  C          20.6784   -1.8246  -11.3976 C.ar      1 MOL1        0.0000
     14  C          19.4221   -2.1093  -10.8761 C.ar      1 MOL1        0.0000
     15  F          18.8542   -3.3170  -11.0822 F         1 MOL1        0.0000
     16  C          18.7363   -1.1524  -10.1388 C.ar      1 MOL1        0.0000
     17  C          19.2883    0.1230   -9.9547 C.ar      1 MOL1        0.0000
     18  C          18.5697    1.1665   -9.2401 C.1       1 MOL1        0.0000
     19  C          20.5476    0.3902  -10.4511 C.ar      1 MOL1        0.0000
     20  S          27.5198   -1.0658   -8.5788 S.3       1 MOL1        0.0000
     21  O          27.2106   -1.9783   -7.4776 O.2       1 MOL1        0.0000
     22  O          28.5996   -1.4049   -9.5080 O.2       1 MOL1        0.0000
     23  C          27.9060    0.6119   -7.8645 C.3       1 MOL1        0.0000
     24  F          27.0587    1.3217  -13.8292 F         1 MOL1        0.0000
     25  F          26.6743   -0.8002  -13.6631 F         1 MOL1        0.0000
     26  N          18.0197    2.0048   -8.6626 N.1       1 MOL1        0.0000
     27  H          28.3401    1.8773  -11.6535 H         1 MOL1        0.0000
     28  H          27.9965   -0.3807  -11.7030 H         1 MOL1        0.0000
     29  H          24.4304    0.1815  -13.6650 H         1 MOL1        0.0000
     30  H          24.7949    1.6423  -12.7675 H         1 MOL1        0.0000
     31  H          24.7812   -1.4913   -7.9023 H         1 MOL1        0.0000
     32  H          22.6852   -1.2202   -9.0977 H         1 MOL1        0.0000
     33  H          21.2178   -2.5834  -11.9440 H         1 MOL1        0.0000
     34  H          17.7955   -1.4363   -9.7044 H         1 MOL1        0.0000
     35  H          21.0080    1.3516  -10.2626 H         1 MOL1        0.0000
     36  H          28.9206    0.5438   -7.4820 H         1 MOL1        0.0000
     37  H          27.1930    0.8396   -7.0713 H         1 MOL1        0.0000
     38  H          27.8723    1.3668   -8.6460 H         1 MOL1        0.0000
@<TRIPOS>BOND
     1      1      2 1 
     2      2      3 1 
     3      2      6 1 
     4      3      4 1 
     5      3     24 1 
     6      3     25 1 
     7      4      5 1 
     8      5      6 ar
     9      5     10 ar
    10      6      7 ar
    11      7      8 ar
    12      7     20 1 
    13      8      9 ar
    14      9     10 ar
    15     10     11 1 
    16     11     12 1 
    17     12     13 ar
    18     12     19 ar
    19     13     14 ar
    20     14     15 1 
    21     14     16 ar
    22     16     17 ar
    23     17     18 1 
    24     17     19 ar
    25     18     26 3 
    26     20     21 2 
    27     20     22 2 
    28     20     23 1 
    29      1     27 1 
    30      2     28 1 
    31      4     29 1 
    32      4     30 1 
    33      8     31 1 
    34      9     32 1 
    35     13     33 1 
    36     16     34 1 
    37     19     35 1 
    38     23     36 1 
    39     23     37 1 
    40     23     38 1 
@<TRIPOS>SUBSTRUCTURE
     1 MOL1         1 MOLECULE 1 A  MOL 
