@<TRIPOS>MOLECULE
164
    39     41      1
SMALL
USER_CHARGES
@<TRIPOS>ATOM
      1  N          27.6126   -0.7221  -11.8575 N.3       1 MOL1        0.0000
      2  C          26.8627    0.4834  -11.6485 C.3       1 MOL1        0.0000
      3  C          26.1047    0.9544  -12.9037 C.3       1 MOL1        0.0000
      4  C          24.7399    0.3045  -12.8887 C.3       1 MOL1        0.0000
      5  C          24.5521    0.0154  -11.4229 C.ar      1 MOL1        0.0000
      6  C          25.7582    0.0913  -10.7061 C.ar      1 MOL1        0.0000
      7  C          25.8158   -0.3193   -9.3720 C.ar      1 MOL1        0.0000
      8  C          24.6669   -0.8401   -8.7767 C.ar      1 MOL1        0.0000
      9  C          23.4728   -0.8983   -9.5001 C.ar      1 MOL1        0.0000
     10  C          23.4127   -0.4346  -10.8069 C.ar      1 MOL1        0.0000
     11  O          22.3203   -0.4472  -11.6365 O.3       1 MOL1        0.0000
     12  C          21.0931   -0.6646  -11.1188 C.ar      1 MOL1        0.0000
     13  C          20.5226   -1.9214  -11.2703 C.ar      1 MOL1        0.0000
     14  C          19.2978   -2.1862  -10.6822 C.ar      1 MOL1        0.0000
     15  F          18.7173   -3.3953  -10.8100 F         1 MOL1        0.0000
     16  C          18.6466   -1.1917   -9.9592 C.ar      1 MOL1        0.0000
     17  C          19.1729    0.0954   -9.8802 C.ar      1 MOL1        0.0000
     18  C          18.4511    1.1750   -9.2307 C.1       1 MOL1        0.0000
     19  C          20.4149    0.3549  -10.4427 C.ar      1 MOL1        0.0000
     20  S          27.3832   -0.4357   -8.4930 S.3       1 MOL1        0.0000
     21  O          27.1650   -1.2520   -7.3169 O.2       1 MOL1        0.0000
     22  O          28.4060   -0.7807   -9.4815 O.2       1 MOL1        0.0000
     23  C          27.7560    1.2677   -7.8424 C.3       1 MOL1        0.0000
     24  F          25.9199    2.2501  -12.6967 F         1 MOL1        0.0000
     25  F          26.7393    0.7426  -14.0688 F         1 MOL1        0.0000
     26  N          17.8847    2.0403   -8.7170 N.1       1 MOL1        0.0000
     27  H          28.4254   -0.5246  -12.4360 H         1 MOL1        0.0000
     28  H          27.9605   -1.1018  -10.9738 H         1 MOL1        0.0000
     29  H          27.4864    1.2911  -11.3381 H         1 MOL1        0.0000
     30  H          24.7677   -0.6258  -13.4628 H         1 MOL1        0.0000
     31  H          23.9668    0.9440  -13.3228 H         1 MOL1        0.0000
     32  H          24.7064   -1.2424   -7.7690 H         1 MOL1        0.0000
     33  H          22.6069   -1.3623   -9.0644 H         1 MOL1        0.0000
     34  H          21.0440   -2.6868  -11.8270 H         1 MOL1        0.0000
     35  H          17.7233   -1.4644   -9.4868 H         1 MOL1        0.0000
     36  H          20.8568    1.3336  -10.3269 H         1 MOL1        0.0000
     37  H          28.7359    1.1864   -7.3802 H         1 MOL1        0.0000
     38  H          27.0414    1.4910   -7.0641 H         1 MOL1        0.0000
     39  H          27.7898    1.9666   -8.6384 H         1 MOL1        0.0000
@<TRIPOS>BOND
     1      1      2 1 
     2      2      3 1 
     3      2      6 1 
     4      3      4 1 
     5      3     24 1 
     6      3     25 1 
     7      4      5 1 
     8      5      6 ar
     9      5     10 ar
    10      6      7 ar
    11      7      8 ar
    12      7     20 1 
    13      8      9 ar
    14      9     10 ar
    15     10     11 1 
    16     11     12 1 
    17     12     13 ar
    18     12     19 ar
    19     13     14 ar
    20     14     15 1 
    21     14     16 ar
    22     16     17 ar
    23     17     18 1 
    24     17     19 ar
    25     18     26 3 
    26     20     21 2 
    27     20     22 2 
    28     20     23 1 
    29      1     27 1 
    30      1     28 1 
    31      2     29 1 
    32      4     30 1 
    33      4     31 1 
    34      8     32 1 
    35      9     33 1 
    36     13     34 1 
    37     16     35 1 
    38     19     36 1 
    39     23     37 1 
    40     23     38 1 
    41     23     39 1 
@<TRIPOS>SUBSTRUCTURE
     1 MOL1         1 MOLECULE 1 A  MOL 
# Molecule written by the XED library from Cresset
