@<TRIPOS>MOLECULE
165
    39     41      1
SMALL
USER_CHARGES
@<TRIPOS>ATOM
      1  N          27.5836    1.5568  -11.1222 N.3       1 MOL1        0.0000
      2  C          27.1600    0.2656  -11.6609 C.3       1 MOL1        0.0000
      3  C          26.5184    0.3567  -13.0592 C.3       1 MOL1        0.0000
      4  C          25.0297    0.5910  -12.8413 C.3       1 MOL1        0.0000
      5  C          24.8052   -0.0654  -11.5002 C.ar      1 MOL1        0.0000
      6  C          26.0146   -0.2437  -10.8064 C.ar      1 MOL1        0.0000
      7  C          26.0168   -0.7770   -9.5128 C.ar      1 MOL1        0.0000
      8  C          24.7994   -1.0910   -8.8981 C.ar      1 MOL1        0.0000
      9  C          23.6068   -0.9245   -9.5924 C.ar      1 MOL1        0.0000
     10  C          23.5979   -0.4259  -10.8920 C.ar      1 MOL1        0.0000
     11  O          22.4815   -0.2804  -11.6866 O.3       1 MOL1        0.0000
     12  C          21.2483   -0.5736  -11.1926 C.ar      1 MOL1        0.0000
     13  C          20.6741   -1.8286  -11.3993 C.ar      1 MOL1        0.0000
     14  C          19.4240   -2.1099  -10.8753 C.ar      1 MOL1        0.0000
     15  F          18.8513   -3.3170  -11.0668 F         1 MOL1        0.0000
     16  C          18.7373   -1.1448  -10.1406 C.ar      1 MOL1        0.0000
     17  C          19.2884    0.1262   -9.9662 C.ar      1 MOL1        0.0000
     18  C          18.5751    1.1667   -9.2345 C.1       1 MOL1        0.0000
     19  C          20.5446    0.3954  -10.4628 C.ar      1 MOL1        0.0000
     20  S          27.5233   -1.0682   -8.5880 S.3       1 MOL1        0.0000
     21  O          27.2169   -1.9994   -7.4943 O.2       1 MOL1        0.0000
     22  O          28.5933   -1.3900   -9.5234 O.2       1 MOL1        0.0000
     23  C          27.9099    0.6030   -7.8462 C.3       1 MOL1        0.0000
     24  F          27.0617    1.2852  -13.8476 F         1 MOL1        0.0000
     25  F          26.6509   -0.8260  -13.6655 F         1 MOL1        0.0000
     26  N          18.0232    1.9902   -8.6670 N.1       1 MOL1        0.0000
     27  H          28.1780    1.3732  -10.3208 H         1 MOL1        0.0000
     28  H          28.2339    1.9505  -11.7936 H         1 MOL1        0.0000
     29  H          27.9972   -0.4377  -11.7205 H         1 MOL1        0.0000
     30  H          24.4163    0.1879  -13.6481 H         1 MOL1        0.0000
     31  H          24.8098    1.6549  -12.7768 H         1 MOL1        0.0000
     32  H          24.7791   -1.4892   -7.9000 H         1 MOL1        0.0000
     33  H          22.6845   -1.2350   -9.1033 H         1 MOL1        0.0000
     34  H          21.2126   -2.5935  -11.9444 H         1 MOL1        0.0000
     35  H          17.8017   -1.4265   -9.7043 H         1 MOL1        0.0000
     36  H          21.0067    1.3483  -10.2588 H         1 MOL1        0.0000
     37  H          28.8501    0.4838   -7.3200 H         1 MOL1        0.0000
     38  H          27.1027    0.8984   -7.1794 H         1 MOL1        0.0000
     39  H          28.0467    1.3492   -8.6202 H         1 MOL1        0.0000
@<TRIPOS>BOND
     1      1      2 1 
     2      2      3 1 
     3      2      6 1 
     4      3      4 1 
     5      3     24 1 
     6      3     25 1 
     7      4      5 1 
     8      5      6 ar
     9      5     10 ar
    10      6      7 ar
    11      7      8 ar
    12      7     20 1 
    13      8      9 ar
    14      9     10 ar
    15     10     11 1 
    16     11     12 1 
    17     12     13 ar
    18     12     19 ar
    19     13     14 ar
    20     14     15 1 
    21     14     16 ar
    22     16     17 ar
    23     17     18 1 
    24     17     19 ar
    25     18     26 3 
    26     20     21 2 
    27     20     22 2 
    28     20     23 1 
    29      1     27 1 
    30      1     28 1 
    31      2     29 1 
    32      4     30 1 
    33      4     31 1 
    34      8     32 1 
    35      9     33 1 
    36     13     34 1 
    37     16     35 1 
    38     19     36 1 
    39     23     37 1 
    40     23     38 1 
    41     23     39 1 
@<TRIPOS>SUBSTRUCTURE
     1 MOL1         1 MOLECULE 1 A  MOL 
# Molecule written by the XED library from Cresset
