@<TRIPOS>MOLECULE
206
    41     43      1
SMALL
USER_CHARGES
@<TRIPOS>ATOM
      1  O          27.8905    0.7814  -11.2833 O.3       1 MOL1        0.0000
      2  C          26.9193   -0.0282  -11.8984 C.3       1 MOL1        0.0000
      3  C          26.2553    0.6485  -13.1070 C.3       1 MOL1        0.0000
      4  C          24.7743    0.3619  -13.0634 C.3       1 MOL1        0.0000
      5  C          24.5513   -0.0833  -11.6435 C.ar      1 MOL1        0.0000
      6  C          25.7571   -0.3137  -10.9611 C.ar      1 MOL1        0.0000
      7  C          25.7304   -0.7838   -9.6350 C.ar      1 MOL1        0.0000
      8  C          24.4955   -0.9388   -8.9991 C.ar      1 MOL1        0.0000
      9  C          23.3088   -0.7555   -9.6942 C.ar      1 MOL1        0.0000
     10  C          23.3376   -0.3678  -11.0366 C.ar      1 MOL1        0.0000
     11  O          22.2312   -0.2289  -11.8473 O.3       1 MOL1        0.0000
     12  C          21.0019   -0.5424  -11.3497 C.ar      1 MOL1        0.0000
     13  C          20.5026   -1.8363  -11.4599 C.ar      1 MOL1        0.0000
     14  C          19.3111   -2.1637  -10.8207 C.ar      1 MOL1        0.0000
     15  F          18.8034   -3.4051  -10.9256 F         1 MOL1        0.0000
     16  C          18.6360   -1.2092  -10.0655 C.ar      1 MOL1        0.0000
     17  C          19.1032    0.1048  -10.0073 C.ar      1 MOL1        0.0000
     18  C          18.4198    1.1400   -9.2611 C.1       1 MOL1        0.0000
     19  C          20.2891    0.4299  -10.6551 C.ar      1 MOL1        0.0000
     20  S          27.1782   -1.3347   -8.7177 S.3       1 MOL1        0.0000
     21  O          26.7390   -2.4320   -7.8613 O.2       1 MOL1        0.0000
     22  O          28.2843   -1.5524   -9.6512 O.2       1 MOL1        0.0000
     23  C          27.6153    0.0506   -7.5323 C.3       1 MOL1        0.0000
     24  F          26.3933    1.9664  -13.0190 F         1 MOL1        0.0000
     25  F          26.7651    0.2478  -14.2653 F         1 MOL1        0.0000
     26  N          17.8859    1.9702   -8.6637 N.1       1 MOL1        0.0000
     27  C          28.2838    1.1998   -8.2640 C.3       1 MOL1        0.0000
     28  H          28.4344    1.2213  -11.9476 H         1 MOL1        0.0000
     29  H          27.3623   -0.9733  -12.2077 H         1 MOL1        0.0000
     30  H          24.5370   -0.4389  -13.7581 H         1 MOL1        0.0000
     31  H          24.1815    1.2313  -13.3494 H         1 MOL1        0.0000
     32  H          24.4471   -1.2650   -7.9726 H         1 MOL1        0.0000
     33  H          22.3722   -0.9488   -9.1964 H         1 MOL1        0.0000
     34  H          21.0600   -2.5906  -11.9949 H         1 MOL1        0.0000
     35  H          17.7638   -1.5211   -9.5283 H         1 MOL1        0.0000
     36  H          20.6808    1.4261  -10.5650 H         1 MOL1        0.0000
     37  H          26.6995    0.3531   -7.0244 H         1 MOL1        0.0000
     38  H          28.2860   -0.3848   -6.7955 H         1 MOL1        0.0000
     39  H          28.6278    1.9639   -7.5645 H         1 MOL1        0.0000
     40  H          27.5819    1.6805   -8.9401 H         1 MOL1        0.0000
     41  H          29.1450    0.8679   -8.8468 H         1 MOL1        0.0000
@<TRIPOS>BOND
     1      1      2 1 
     2      2      3 1 
     3      2      6 1 
     4      3      4 1 
     5      3     24 1 
     6      3     25 1 
     7      4      5 1 
     8      5      6 ar
     9      5     10 ar
    10      6      7 ar
    11      7      8 ar
    12      7     20 1 
    13      8      9 ar
    14      9     10 ar
    15     10     11 1 
    16     11     12 1 
    17     12     13 ar
    18     12     19 ar
    19     13     14 ar
    20     14     15 1 
    21     14     16 ar
    22     16     17 ar
    23     17     18 1 
    24     17     19 ar
    25     18     26 3 
    26     20     21 2 
    27     20     22 2 
    28     20     23 1 
    29     23     27 1 
    30      1     28 1 
    31      2     29 1 
    32      4     30 1 
    33      4     31 1 
    34      8     32 1 
    35      9     33 1 
    36     13     34 1 
    37     16     35 1 
    38     19     36 1 
    39     23     37 1 
    40     23     38 1 
    41     27     39 1 
    42     27     40 1 
    43     27     41 1 
@<TRIPOS>SUBSTRUCTURE
     1 MOL1         1 MOLECULE 1 A  MOL 
# Molecule written by the XED library from Cresset
