@<TRIPOS>MOLECULE
224
    37     39      1
SMALL
USER_CHARGES
@<TRIPOS>ATOM
      1  O          27.5892    1.5543  -11.2505 O.3       1 MOL1        0.0000
      2  C          27.1498    0.2833  -11.6710 C.3       1 MOL1        0.0000
      3  C          26.5108    0.3676  -13.0595 C.3       1 MOL1        0.0000
      4  C          25.0274    0.6124  -12.8307 C.3       1 MOL1        0.0000
      5  C          24.7998   -0.0567  -11.4929 C.ar      1 MOL1        0.0000
      6  C          26.0087   -0.2305  -10.8088 C.ar      1 MOL1        0.0000
      7  C          26.0111   -0.7788   -9.5159 C.ar      1 MOL1        0.0000
      8  C          24.7936   -1.0867   -8.9039 C.ar      1 MOL1        0.0000
      9  C          23.5969   -0.9365   -9.5976 C.ar      1 MOL1        0.0000
     10  C          23.5942   -0.4360  -10.9066 C.ar      1 MOL1        0.0000
     11  O          22.4686   -0.2925  -11.6835 O.3       1 MOL1        0.0000
     12  C          21.3282   -0.9881  -11.3963 C.ar      1 MOL1        0.0000
     13  S          27.5230   -1.0757   -8.5998 S.3       1 MOL1        0.0000
     14  O          27.2255   -2.0253   -7.5211 O.2       1 MOL1        0.0000
     15  O          28.5744   -1.4184   -9.5570 O.2       1 MOL1        0.0000
     16  C          27.9214    0.6061   -7.8350 C.3       1 MOL1        0.0000
     17  F          26.6364   -0.8101  -13.6721 F         1 MOL1        0.0000
     18  F          27.0633    1.3020  -13.8343 F         1 MOL1        0.0000
     19  F          29.1867    0.5592   -7.4973 F         1 MOL1        0.0000
     20  F          27.7523    1.5709   -8.7021 F         1 MOL1        0.0000
     21  F          27.1266    0.7997   -6.7875 F         1 MOL1        0.0000
     22  C          21.0786   -2.3612  -11.5124 C.ar      1 MOL1        0.0000
     23  N          19.8428   -2.6747  -11.1890 N.2       1 MOL1        0.0000
     24  N          19.2863   -1.5151  -10.8350 N.pl3     1 MOL1        0.0000
     25  C          20.1395   -0.4523  -10.9690 C.ar      1 MOL1        0.0000
     26  C          17.9093   -1.4982  -10.3984 C.3       1 MOL1        0.0000
     27  H          28.3645    1.8361  -11.7694 H         1 MOL1        0.0000
     28  H          27.9763   -0.4257  -11.6958 H         1 MOL1        0.0000
     29  H          24.8087    1.6838  -12.7839 H         1 MOL1        0.0000
     30  H          24.4133    0.1809  -13.6152 H         1 MOL1        0.0000
     31  H          24.7772   -1.4629   -7.8914 H         1 MOL1        0.0000
     32  H          22.6752   -1.2335   -9.1264 H         1 MOL1        0.0000
     33  H          21.7723   -3.1162  -11.8587 H         1 MOL1        0.0000
     34  H          19.8418    0.5586  -10.7467 H         1 MOL1        0.0000
     35  H          17.2620   -1.8736  -11.1914 H         1 MOL1        0.0000
     36  H          17.6284   -0.4741  -10.1584 H         1 MOL1        0.0000
     37  H          17.7963   -2.1168   -9.5078 H         1 MOL1        0.0000
@<TRIPOS>BOND
     1      1      2 1 
     2      2      3 1 
     3      2      6 1 
     4      3      4 1 
     5      3     17 1 
     6      3     18 1 
     7      4      5 1 
     8      5      6 ar
     9      5     10 ar
    10      6      7 ar
    11      7      8 ar
    12      7     13 1 
    13      8      9 ar
    14      9     10 ar
    15     10     11 1 
    16     11     12 1 
    17     12     22 ar
    18     12     25 ar
    19     13     14 2 
    20     13     15 2 
    21     13     16 1 
    22     16     19 1 
    23     16     20 1 
    24     16     21 1 
    25     22     23 ar
    26     23     24 ar
    27     24     25 ar
    28     24     26 1 
    29      1     27 1 
    30      2     28 1 
    31      4     29 1 
    32      4     30 1 
    33      8     31 1 
    34      9     32 1 
    35     22     33 1 
    36     25     34 1 
    37     26     35 1 
    38     26     36 1 
    39     26     37 1 
@<TRIPOS>SUBSTRUCTURE
     1 MOL1         1 MOLECULE 1 A  MOL 
# Molecule written by the XED library from Cresset
