@<TRIPOS>MOLECULE
227
    38     40      1
SMALL
USER_CHARGES
@<TRIPOS>ATOM
      1  O          27.8272    1.5641  -11.0613 O.3       1 MOL1        0.0000
      2  C          27.1196    0.5197  -11.7089 C.3       1 MOL1        0.0000
      3  C          26.4410    0.9322  -13.0322 C.3       1 MOL1        0.0000
      4  C          25.0569    0.3132  -13.0465 C.3       1 MOL1        0.0000
      5  C          24.8031   -0.0378  -11.5948 C.ar      1 MOL1        0.0000
      6  C          25.9821   -0.0054  -10.8391 C.ar      1 MOL1        0.0000
      7  C          25.9756   -0.4108   -9.4860 C.ar      1 MOL1        0.0000
      8  C          24.7523   -0.7639   -8.9047 C.ar      1 MOL1        0.0000
      9  C          23.5893   -0.8199   -9.6602 C.ar      1 MOL1        0.0000
     10  C          23.6070   -0.4713  -11.0162 C.ar      1 MOL1        0.0000
     11  O          22.5129   -0.5291  -11.8499 O.3       1 MOL1        0.0000
     12  C          21.2693   -0.7597  -11.3270 C.ar      1 MOL1        0.0000
     13  C          20.6685   -2.0051  -11.4862 C.ar      1 MOL1        0.0000
     14  C          19.4249   -2.2461  -10.9160 C.ar      1 MOL1        0.0000
     15  F          18.8269   -3.4424  -11.0720 F         1 MOL1        0.0000
     16  C          18.7871   -1.2517  -10.1791 C.ar      1 MOL1        0.0000
     17  C          19.3542    0.0199  -10.0730 C.ar      1 MOL1        0.0000
     18  C          18.6860    1.1030   -9.3771 C.1       1 MOL1        0.0000
     19  C          20.6055    0.2435  -10.6245 C.ar      1 MOL1        0.0000
     20  S          27.4540   -0.4504   -8.4410 S.3       1 MOL1        0.0000
     21  O          27.2130   -1.3677   -7.3228 O.2       1 MOL1        0.0000
     22  O          28.5784   -0.6917   -9.3508 O.2       1 MOL1        0.0000
     23  C          27.6740    1.2644   -7.6619 C.3       1 MOL1        0.0000
     24  F          26.2395    2.2465  -13.0641 F         1 MOL1        0.0000
     25  N          18.1663    1.9675   -8.8128 N.1       1 MOL1        0.0000
     26  F          27.2225    1.2103   -6.4199 F         1 MOL1        0.0000
     27  F          28.9768    1.5534   -7.6702 F         1 MOL1        0.0000
     28  F          27.0318    2.1940   -8.3234 F         1 MOL1        0.0000
     29  H          28.5149    1.9300  -11.6463 H         1 MOL1        0.0000
     30  H          27.8025   -0.3009  -11.9316 H         1 MOL1        0.0000
     31  H          27.0306    0.7186  -13.9241 H         1 MOL1        0.0000
     32  H          25.0758   -0.5870  -13.6585 H         1 MOL1        0.0000
     33  H          24.3018    0.9764  -13.4758 H         1 MOL1        0.0000
     34  H          24.6649   -1.0110   -7.8636 H         1 MOL1        0.0000
     35  H          22.6896   -1.1518   -9.1671 H         1 MOL1        0.0000
     36  H          21.1858   -2.7906  -12.0103 H         1 MOL1        0.0000
     37  H          17.8819   -1.5039   -9.6760 H         1 MOL1        0.0000
     38  H          21.0827    1.1859  -10.4602 H         1 MOL1        0.0000
@<TRIPOS>BOND
     1      1      2 1 
     2      2      3 1 
     3      2      6 1 
     4      3      4 1 
     5      3     24 1 
     6      4      5 1 
     7      5      6 ar
     8      5     10 ar
     9      6      7 ar
    10      7      8 ar
    11      7     20 1 
    12      8      9 ar
    13      9     10 ar
    14     10     11 1 
    15     11     12 1 
    16     12     13 ar
    17     12     19 ar
    18     13     14 ar
    19     14     15 1 
    20     14     16 ar
    21     16     17 ar
    22     17     18 1 
    23     17     19 ar
    24     18     25 3 
    25     20     21 2 
    26     20     22 2 
    27     20     23 1 
    28     23     26 1 
    29     23     27 1 
    30     23     28 1 
    31      1     29 1 
    32      2     30 1 
    33      3     31 1 
    34      4     32 1 
    35      4     33 1 
    36      8     34 1 
    37      9     35 1 
    38     13     36 1 
    39     16     37 1 
    40     19     38 1 
@<TRIPOS>SUBSTRUCTURE
     1 MOL1         1 MOLECULE 1 A  MOL 
# Molecule written by the XED library from Cresset
