@<TRIPOS>MOLECULE
234
    38     40      1
SMALL
USER_CHARGES
@<TRIPOS>ATOM
      1  O          27.5728    1.5601  -11.1459 O.3       1 MOL1        0.0000
      2  C          27.1536    0.3088  -11.6552 C.3       1 MOL1        0.0000
      3  C          26.5252    0.3787  -13.0559 C.3       1 MOL1        0.0000
      4  C          25.0351    0.5810  -12.8466 C.3       1 MOL1        0.0000
      5  C          24.8123   -0.0916  -11.5082 C.ar      1 MOL1        0.0000
      6  C          26.0213   -0.2538  -10.8166 C.ar      1 MOL1        0.0000
      7  C          26.0217   -0.7899   -9.5190 C.ar      1 MOL1        0.0000
      8  C          24.8061   -1.1035   -8.9088 C.ar      1 MOL1        0.0000
      9  C          23.6060   -0.9317   -9.5917 C.ar      1 MOL1        0.0000
     10  C          23.6085   -0.4312  -10.8990 C.ar      1 MOL1        0.0000
     11  O          22.4887   -0.2465  -11.6759 O.3       1 MOL1        0.0000
     12  C          21.2536   -0.5375  -11.1765 C.ar      1 MOL1        0.0000
     13  C          20.6849   -1.7900  -11.3895 C.ar      1 MOL1        0.0000
     14  C          19.4306   -2.0624  -10.8562 C.ar      1 MOL1        0.0000
     15  CL         18.6842   -3.5700  -11.0979 Cl        1 MOL1        0.0000
     16  C          18.7499   -1.1042  -10.1192 C.ar      1 MOL1        0.0000
     17  C          19.2995    0.1632   -9.9426 C.ar      1 MOL1        0.0000
     18  C          18.5790    1.1976   -9.2292 C.1       1 MOL1        0.0000
     19  C          20.5645    0.4307  -10.4478 C.ar      1 MOL1        0.0000
     20  S          27.5212   -1.0658   -8.5765 S.3       1 MOL1        0.0000
     21  O          27.2091   -1.9751   -7.4734 O.2       1 MOL1        0.0000
     22  O          28.6014   -1.4067   -9.5003 O.2       1 MOL1        0.0000
     23  C          27.9046    0.6147   -7.8636 C.3       1 MOL1        0.0000
     24  F          27.0583    1.3232  -13.8300 F         1 MOL1        0.0000
     25  F          26.6754   -0.7993  -13.6647 F         1 MOL1        0.0000
     26  N          18.0104    2.0266   -8.6666 N.1       1 MOL1        0.0000
     27  H          28.3370    1.8866  -11.6617 H         1 MOL1        0.0000
     28  H          28.0013   -0.3730  -11.7036 H         1 MOL1        0.0000
     29  H          24.4365    0.1828  -13.6670 H         1 MOL1        0.0000
     30  H          24.7950    1.6418  -12.7665 H         1 MOL1        0.0000
     31  H          24.7820   -1.4948   -7.9039 H         1 MOL1        0.0000
     32  H          22.6892   -1.2153   -9.0980 H         1 MOL1        0.0000
     33  H          21.2216   -2.5514  -11.9357 H         1 MOL1        0.0000
     34  H          17.8153   -1.3857   -9.6830 H         1 MOL1        0.0000
     35  H          21.0238    1.3833  -10.2559 H         1 MOL1        0.0000
     36  H          28.8492    0.5007   -7.3454 H         1 MOL1        0.0000
     37  H          27.1052    0.9088   -7.1861 H         1 MOL1        0.0000
     38  H          28.0235    1.3382   -8.6638 H         1 MOL1        0.0000
@<TRIPOS>BOND
     1      1      2 1 
     2      2      3 1 
     3      2      6 1 
     4      3      4 1 
     5      3     24 1 
     6      3     25 1 
     7      4      5 1 
     8      5      6 ar
     9      5     10 ar
    10      6      7 ar
    11      7      8 ar
    12      7     20 1 
    13      8      9 ar
    14      9     10 ar
    15     10     11 1 
    16     11     12 1 
    17     12     13 ar
    18     12     19 ar
    19     13     14 ar
    20     14     15 1 
    21     14     16 ar
    22     16     17 ar
    23     17     18 1 
    24     17     19 ar
    25     18     26 3 
    26     20     21 2 
    27     20     22 2 
    28     20     23 1 
    29      1     27 1 
    30      2     28 1 
    31      4     29 1 
    32      4     30 1 
    33      8     31 1 
    34      9     32 1 
    35     13     33 1 
    36     16     34 1 
    37     19     35 1 
    38     23     36 1 
    39     23     37 1 
    40     23     38 1 
@<TRIPOS>SUBSTRUCTURE
     1 MOL1         1 MOLECULE 1 A  MOL 
# Molecule written by the XED library from Cresset
