@<TRIPOS>MOLECULE
235
    37     39      1
SMALL
USER_CHARGES
@<TRIPOS>ATOM
      1  O          27.5822    1.5627  -11.2551 O.3       1 MOL1        0.0000
      2  C          27.1468    0.2863  -11.6761 C.3       1 MOL1        0.0000
      3  C          26.5086    0.3643  -13.0642 C.3       1 MOL1        0.0000
      4  C          25.0265    0.6075  -12.8332 C.3       1 MOL1        0.0000
      5  C          24.7967   -0.0605  -11.4946 C.ar      1 MOL1        0.0000
      6  C          26.0077   -0.2336  -10.8115 C.ar      1 MOL1        0.0000
      7  C          26.0091   -0.7786   -9.5174 C.ar      1 MOL1        0.0000
      8  C          24.7944   -1.0867   -8.9034 C.ar      1 MOL1        0.0000
      9  C          23.5936   -0.9312   -9.5951 C.ar      1 MOL1        0.0000
     10  C          23.5911   -0.4269  -10.8990 C.ar      1 MOL1        0.0000
     11  O          22.4730   -0.2997  -11.6967 O.3       1 MOL1        0.0000
     12  C          21.2211   -0.5557  -11.2088 C.ar      1 MOL1        0.0000
     13  C          20.5807   -1.7704  -11.4636 C.ar      1 MOL1        0.0000
     14  N          19.3293   -2.0485  -11.0244 N.ar      1 MOL1        0.0000
     15  C          18.6868   -1.0883  -10.3158 C.ar      1 MOL1        0.0000
     16  C          19.2441    0.1607  -10.0304 C.ar      1 MOL1        0.0000
     17  C          18.5232    1.1702   -9.2782 C.1       1 MOL1        0.0000
     18  C          20.5375    0.4137  -10.4764 C.ar      1 MOL1        0.0000
     19  S          27.5181   -1.0772   -8.5972 S.3       1 MOL1        0.0000
     20  O          27.2199   -2.0291   -7.5251 O.2       1 MOL1        0.0000
     21  O          28.5736   -1.4146   -9.5547 O.2       1 MOL1        0.0000
     22  C          27.9098    0.6015   -7.8247 C.3       1 MOL1        0.0000
     23  F          27.0599    1.2997  -13.8390 F         1 MOL1        0.0000
     24  F          26.6397   -0.8135  -13.6733 F         1 MOL1        0.0000
     25  N          17.9557    1.9748   -8.6688 N.1       1 MOL1        0.0000
     26  F          29.1729    0.5500   -7.4603 F         1 MOL1        0.0000
     27  F          27.7563    1.5773   -8.6957 F         1 MOL1        0.0000
     28  F          27.1098    0.7930   -6.7781 F         1 MOL1        0.0000
     29  H          28.3814    1.8217  -11.7482 H         1 MOL1        0.0000
     30  H          27.9776   -0.4206  -11.7025 H         1 MOL1        0.0000
     31  H          24.4121    0.1832  -13.6241 H         1 MOL1        0.0000
     32  H          24.8083    1.6771  -12.7815 H         1 MOL1        0.0000
     33  H          24.7762   -1.4676   -7.8938 H         1 MOL1        0.0000
     34  H          22.6785   -1.2385   -9.1186 H         1 MOL1        0.0000
     35  H          21.0644   -2.5457  -12.0352 H         1 MOL1        0.0000
     36  H          17.7081   -1.3631   -9.9794 H         1 MOL1        0.0000
     37  H          21.0111    1.3563  -10.2603 H         1 MOL1        0.0000
@<TRIPOS>BOND
     1      1      2 1 
     2      2      3 1 
     3      2      6 1 
     4      3      4 1 
     5      3     23 1 
     6      3     24 1 
     7      4      5 1 
     8      5      6 ar
     9      5     10 ar
    10      6      7 ar
    11      7      8 ar
    12      7     19 1 
    13      8      9 ar
    14      9     10 ar
    15     10     11 1 
    16     11     12 1 
    17     12     13 ar
    18     12     18 ar
    19     13     14 ar
    20     14     15 ar
    21     15     16 ar
    22     16     17 1 
    23     16     18 ar
    24     17     25 3 
    25     19     20 2 
    26     19     21 2 
    27     19     22 1 
    28     22     26 1 
    29     22     27 1 
    30     22     28 1 
    31      1     29 1 
    32      2     30 1 
    33      4     31 1 
    34      4     32 1 
    35      8     33 1 
    36      9     34 1 
    37     13     35 1 
    38     15     36 1 
    39     18     37 1 
@<TRIPOS>SUBSTRUCTURE
     1 MOL1         1 MOLECULE 1 A  MOL 
# Molecule written by the XED library from Cresset
