@<TRIPOS>MOLECULE
237
    38     40      1
SMALL
USER_CHARGES
@<TRIPOS>ATOM
      1  O          27.8741   -0.4334  -11.8881 O.3       1 MOL1        0.0000
      2  C          26.9533    0.5103  -11.4691 C.3       1 MOL1        0.0000
      3  C          26.2123    1.1350  -12.6505 C.3       1 MOL1        0.0000
      4  C          24.8814    0.4428  -12.7971 C.3       1 MOL1        0.0000
      5  C          24.6562   -0.1013  -11.4106 C.ar      1 MOL1        0.0000
      6  C          25.8419   -0.1153  -10.6575 C.ar      1 MOL1        0.0000
      7  C          25.8608   -0.7137   -9.3921 C.ar      1 MOL1        0.0000
      8  C          24.6666   -1.1821   -8.8556 C.ar      1 MOL1        0.0000
      9  C          23.4957   -1.1640   -9.6018 C.ar      1 MOL1        0.0000
     10  C          23.4866   -0.6454  -10.8961 C.ar      1 MOL1        0.0000
     11  O          22.3959   -0.6294  -11.7424 O.3       1 MOL1        0.0000
     12  C          21.1512   -0.8062  -11.2113 C.ar      1 MOL1        0.0000
     13  C          20.5139   -2.0346  -11.3575 C.ar      1 MOL1        0.0000
     14  C          19.2861   -2.2462  -10.7434 C.ar      1 MOL1        0.0000
     15  C          18.6869   -1.2275   -9.9984 C.ar      1 MOL1        0.0000
     16  C          19.2935    0.0276   -9.9139 C.ar      1 MOL1        0.0000
     17  C          18.6677    1.1330   -9.2217 C.1       1 MOL1        0.0000
     18  C          20.5431    0.2205  -10.5011 C.ar      1 MOL1        0.0000
     19  S          27.3544   -0.9316   -8.4201 S.3       1 MOL1        0.0000
     20  O          27.0858   -2.0306   -7.4835 O.2       1 MOL1        0.0000
     21  O          28.5108   -1.0162   -9.3142 O.2       1 MOL1        0.0000
     22  C          27.4424    0.7020   -7.4764 C.3       1 MOL1        0.0000
     23  F          25.9408    2.3663  -12.2653 F         1 MOL1        0.0000
     24  F          26.9134    1.1664  -13.7919 F         1 MOL1        0.0000
     25  N          18.1713    2.0136   -8.6640 N.1       1 MOL1        0.0000
     26  F          27.4016    1.6993   -8.3556 F         1 MOL1        0.0000
     27  F          26.4012    0.7578   -6.6504 F         1 MOL1        0.0000
     28  F          18.6855   -3.4418  -10.8633 F         1 MOL1        0.0000
     29  H          28.6720    0.0152  -12.1950 H         1 MOL1        0.0000
     30  H          27.5009    1.2650  -10.9032 H         1 MOL1        0.0000
     31  H          24.9483   -0.3583  -13.5290 H         1 MOL1        0.0000
     32  H          24.0975    1.1265  -13.1204 H         1 MOL1        0.0000
     33  H          24.6404   -1.6102   -7.8694 H         1 MOL1        0.0000
     34  H          22.6040   -1.6081   -9.1858 H         1 MOL1        0.0000
     35  H          20.9886   -2.8350  -11.8914 H         1 MOL1        0.0000
     36  H          17.7800   -1.4545   -9.4636 H         1 MOL1        0.0000
     37  H          21.0611    1.1592  -10.3869 H         1 MOL1        0.0000
     38  H          28.3614    0.7441   -6.8868 H         1 MOL1        0.0000
@<TRIPOS>BOND
     1      1      2 1 
     2      2      3 1 
     3      2      6 1 
     4      3      4 1 
     5      3     23 1 
     6      3     24 1 
     7      4      5 1 
     8      5      6 ar
     9      5     10 ar
    10      6      7 ar
    11      7      8 ar
    12      7     19 1 
    13      8      9 ar
    14      9     10 ar
    15     10     11 1 
    16     11     12 1 
    17     12     13 ar
    18     12     18 ar
    19     13     14 ar
    20     14     15 ar
    21     14     28 1 
    22     15     16 ar
    23     16     17 1 
    24     16     18 ar
    25     17     25 3 
    26     19     20 2 
    27     19     21 2 
    28     19     22 1 
    29     22     26 1 
    30     22     27 1 
    31      1     29 1 
    32      2     30 1 
    33      4     31 1 
    34      4     32 1 
    35      8     33 1 
    36      9     34 1 
    37     13     35 1 
    38     15     36 1 
    39     18     37 1 
    40     22     38 1 
@<TRIPOS>SUBSTRUCTURE
     1 MOL1         1 MOLECULE 1 A  MOL 
# Molecule written by the XED library from Cresset
