@<TRIPOS>MOLECULE
251
    39     41      1
SMALL
USER_CHARGES
@<TRIPOS>ATOM
      1  O          27.4945    1.5901  -11.4326 O.3       1 MOL1        0.0000
      2  C          27.1374    0.2686  -11.7191 C.3       1 MOL1        0.0000
      3  C          26.4953    0.3323  -13.0981 C.3       1 MOL1        0.0000
      4  C          25.0217    0.5994  -12.8429 C.3       1 MOL1        0.0000
      5  C          24.8020   -0.0597  -11.4964 C.ar      1 MOL1        0.0000
      6  C          26.0153   -0.2255  -10.8167 C.ar      1 MOL1        0.0000
      7  C          26.0241   -0.7593   -9.5118 C.ar      1 MOL1        0.0000
      8  C          24.8061   -1.0787   -8.9024 C.ar      1 MOL1        0.0000
      9  C          23.6060   -0.9317   -9.5932 C.ar      1 MOL1        0.0000
     10  C          23.6016   -0.4258  -10.8989 C.ar      1 MOL1        0.0000
     11  O          22.4847   -0.2873  -11.6913 O.3       1 MOL1        0.0000
     12  C          21.2447   -0.5730  -11.1948 C.ar      1 MOL1        0.0000
     13  C          20.5522    0.3978  -10.4720 C.ar      1 MOL1        0.0000
     14  C          19.2931    0.1248   -9.9600 C.ar      1 MOL1        0.0000
     15  F          18.6203    1.0830   -9.2845 F         1 MOL1        0.0000
     16  C          18.7413   -1.1375  -10.1417 C.ar      1 MOL1        0.0000
     17  C          19.4210   -2.1088  -10.8684 C.ar      1 MOL1        0.0000
     18  F          18.8530   -3.3145  -11.0601 F         1 MOL1        0.0000
     19  C          20.6751   -1.8286  -11.4013 C.ar      1 MOL1        0.0000
     20  S          27.5391   -1.0647   -8.5878 S.3       1 MOL1        0.0000
     21  O          28.5975   -1.3882   -9.5392 O.2       1 MOL1        0.0000
     22  O          27.2312   -2.0153   -7.5145 O.2       1 MOL1        0.0000
     23  N          27.9407    0.4584   -7.8059 N.3       1 MOL1        0.0000
     24  F          27.0378    1.2658  -13.8907 F         1 MOL1        0.0000
     25  F          26.6284   -0.8376  -13.6973 F         1 MOL1        0.0000
     26  C          28.4928    1.5464   -8.6066 C.3       1 MOL1        0.0000
     27  H          28.3741    1.7859  -11.8038 H         1 MOL1        0.0000
     28  H          27.9892   -0.4124  -11.7122 H         1 MOL1        0.0000
     29  H          24.8113    1.6720  -12.7864 H         1 MOL1        0.0000
     30  H          24.3984    0.1783  -13.6254 H         1 MOL1        0.0000
     31  H          24.7828   -1.4635   -7.8934 H         1 MOL1        0.0000
     32  H          22.6875   -1.2371   -9.1179 H         1 MOL1        0.0000
     33  H          20.9875    1.3612  -10.2718 H         1 MOL1        0.0000
     34  H          17.7955   -1.3802   -9.7072 H         1 MOL1        0.0000
     35  H          21.2077   -2.5898  -11.9503 H         1 MOL1        0.0000
     36  H          28.3589    0.3734   -6.8803 H         1 MOL1        0.0000
     37  H          28.5484    2.4694   -8.0394 H         1 MOL1        0.0000
     38  H          27.7523    1.7872   -9.3272 H         1 MOL1        0.0000
     39  H          29.4721    1.2647   -9.0380 H         1 MOL1        0.0000
@<TRIPOS>BOND
     1      1      2 1 
     2      2      3 1 
     3      2      6 1 
     4      3      4 1 
     5      3     24 1 
     6      3     25 1 
     7      4      5 1 
     8      5      6 ar
     9      5     10 ar
    10      6      7 ar
    11      7      8 ar
    12      7     20 1 
    13      8      9 ar
    14      9     10 ar
    15     10     11 1 
    16     11     12 1 
    17     12     13 ar
    18     12     19 ar
    19     13     14 ar
    20     14     15 1 
    21     14     16 ar
    22     16     17 ar
    23     17     18 1 
    24     17     19 ar
    25     20     21 2 
    26     20     22 2 
    27     20     23 1 
    28     23     26 1 
    29      1     27 1 
    30      2     28 1 
    31      4     29 1 
    32      4     30 1 
    33      8     31 1 
    34      9     32 1 
    35     13     33 1 
    36     16     34 1 
    37     19     35 1 
    38     23     36 1 
    39     26     37 1 
    40     26     38 1 
    41     26     39 1 
@<TRIPOS>SUBSTRUCTURE
     1 MOL1         1 MOLECULE 1 A  MOL 
# Molecule written by the XED library from Cresset
