@<TRIPOS>MOLECULE
254
    40     42      1
SMALL
USER_CHARGES
@<TRIPOS>ATOM
      1  O          27.5290    1.5702  -11.4140 O.3       1 MOL1        0.0000
      2  C          27.1452    0.2616  -11.7016 C.3       1 MOL1        0.0000
      3  C          26.5035    0.3509  -13.0777 C.3       1 MOL1        0.0000
      4  C          25.0278    0.6163  -12.8283 C.3       1 MOL1        0.0000
      5  C          24.8030   -0.0491  -11.4879 C.ar      1 MOL1        0.0000
      6  C          26.0132   -0.2224  -10.8071 C.ar      1 MOL1        0.0000
      7  C          26.0189   -0.7643   -9.5084 C.ar      1 MOL1        0.0000
      8  C          24.8007   -1.0836   -8.9010 C.ar      1 MOL1        0.0000
      9  C          23.6021   -0.9380   -9.5968 C.ar      1 MOL1        0.0000
     10  C          23.6010   -0.4271  -10.9002 C.ar      1 MOL1        0.0000
     11  O          22.4865   -0.2951  -11.6981 O.3       1 MOL1        0.0000
     12  C          21.2462   -0.5782  -11.2011 C.ar      1 MOL1        0.0000
     13  C          20.6749   -1.8342  -11.4016 C.ar      1 MOL1        0.0000
     14  C          19.4231   -2.1130  -10.8638 C.ar      1 MOL1        0.0000
     15  F          18.8605   -3.3235  -11.0484 F         1 MOL1        0.0000
     16  C          18.7415   -1.1394  -10.1398 C.ar      1 MOL1        0.0000
     17  C          19.2943    0.1296   -9.9653 C.ar      1 MOL1        0.0000
     18  C          18.5740    1.1648   -9.2440 C.1       1 MOL1        0.0000
     19  C          20.5558    0.3964  -10.4841 C.ar      1 MOL1        0.0000
     20  S          27.5377   -1.0695   -8.5948 S.3       1 MOL1        0.0000
     21  O          27.2346   -2.0117   -7.5154 O.2       1 MOL1        0.0000
     22  O          28.5882   -1.4038   -9.5540 O.2       1 MOL1        0.0000
     23  N          27.9451    0.4615   -7.8301 N.3       1 MOL1        0.0000
     24  F          27.0549    1.2897  -13.8570 F         1 MOL1        0.0000
     25  F          26.6287   -0.8235  -13.6847 F         1 MOL1        0.0000
     26  N          18.0045    1.9857   -8.6629 N.1       1 MOL1        0.0000
     27  C          28.5002    1.5466   -8.6218 C.3       1 MOL1        0.0000
     28  H          28.4232    1.7635  -11.7473 H         1 MOL1        0.0000
     29  H          27.9845   -0.4335  -11.6910 H         1 MOL1        0.0000
     30  H          24.4120    0.1762  -13.6053 H         1 MOL1        0.0000
     31  H          24.8119    1.6889  -12.7872 H         1 MOL1        0.0000
     32  H          24.7814   -1.4584   -7.8884 H         1 MOL1        0.0000
     33  H          22.6799   -1.2369   -9.1253 H         1 MOL1        0.0000
     34  H          21.2052   -2.5946  -11.9528 H         1 MOL1        0.0000
     35  H          17.7929   -1.3901   -9.7095 H         1 MOL1        0.0000
     36  H          21.0125    1.3565  -10.3126 H         1 MOL1        0.0000
     37  H          28.3572    0.4001   -6.9030 H         1 MOL1        0.0000
     38  H          28.5305    2.4836   -8.0830 H         1 MOL1        0.0000
     39  H          27.7869    1.7713   -9.3533 H         1 MOL1        0.0000
     40  H          29.4618    1.2797   -9.0473 H         1 MOL1        0.0000
@<TRIPOS>BOND
     1      1      2 1 
     2      2      3 1 
     3      2      6 1 
     4      3      4 1 
     5      3     24 1 
     6      3     25 1 
     7      4      5 1 
     8      5      6 ar
     9      5     10 ar
    10      6      7 ar
    11      7      8 ar
    12      7     20 1 
    13      8      9 ar
    14      9     10 ar
    15     10     11 1 
    16     11     12 1 
    17     12     13 ar
    18     12     19 ar
    19     13     14 ar
    20     14     15 1 
    21     14     16 ar
    22     16     17 ar
    23     17     18 1 
    24     17     19 ar
    25     18     26 3 
    26     20     21 2 
    27     20     22 2 
    28     20     23 1 
    29     23     27 1 
    30      1     28 1 
    31      2     29 1 
    32      4     30 1 
    33      4     31 1 
    34      8     32 1 
    35      9     33 1 
    36     13     34 1 
    37     16     35 1 
    38     19     36 1 
    39     23     37 1 
    40     27     38 1 
    41     27     39 1 
    42     27     40 1 
@<TRIPOS>SUBSTRUCTURE
     1 MOL1         1 MOLECULE 1 A  MOL 
# Molecule written by the XED library from Cresset
