@<TRIPOS>MOLECULE
256
    36     38      1
SMALL
USER_CHARGES
@<TRIPOS>ATOM
      1  O          27.6349    1.5390  -11.1120 O.3       1 MOL1        0.0000
      2  C          27.1610    0.3080  -11.6434 C.3       1 MOL1        0.0000
      3  C          26.5246    0.3818  -13.0435 C.3       1 MOL1        0.0000
      4  C          25.0349    0.5918  -12.8363 C.3       1 MOL1        0.0000
      5  C          24.8128   -0.0780  -11.4926 C.ar      1 MOL1        0.0000
      6  C          26.0207   -0.2330  -10.7985 C.ar      1 MOL1        0.0000
      7  C          26.0265   -0.7616   -9.4949 C.ar      1 MOL1        0.0000
      8  C          24.8081   -1.0797   -8.8934 C.ar      1 MOL1        0.0000
      9  C          23.6071   -0.9271   -9.5818 C.ar      1 MOL1        0.0000
     10  C          23.6051   -0.4285  -10.8927 C.ar      1 MOL1        0.0000
     11  O          22.4843   -0.2729  -11.6739 O.3       1 MOL1        0.0000
     12  C          21.2426   -0.5644  -11.1778 C.ar      1 MOL1        0.0000
     13  C          20.5459    0.3947  -10.4507 C.ar      1 MOL1        0.0000
     14  C          19.2853    0.1164   -9.9393 C.ar      1 MOL1        0.0000
     15  F          18.6069    1.0601   -9.2520 F         1 MOL1        0.0000
     16  C          18.7375   -1.1466  -10.1378 C.ar      1 MOL1        0.0000
     17  C          19.4161   -2.1029  -10.8774 C.ar      1 MOL1        0.0000
     18  F          18.8465   -3.3080  -11.0783 F         1 MOL1        0.0000
     19  C          20.6729   -1.8221  -11.4011 C.ar      1 MOL1        0.0000
     20  S          27.5431   -1.0730   -8.5723 S.3       1 MOL1        0.0000
     21  O          28.5992   -1.4076   -9.5147 O.2       1 MOL1        0.0000
     22  O          27.2219   -1.9934   -7.4762 O.2       1 MOL1        0.0000
     23  N          27.9698    0.4559   -7.8597 N.3       1 MOL1        0.0000
     24  F          27.0650    1.3224  -13.8196 F         1 MOL1        0.0000
     25  F          26.6750   -0.7960  -13.6529 F         1 MOL1        0.0000
     26  H          28.3650    1.8699  -11.6666 H         1 MOL1        0.0000
     27  H          27.9821   -0.4047  -11.7081 H         1 MOL1        0.0000
     28  H          24.7980    1.6524  -12.7661 H         1 MOL1        0.0000
     29  H          24.4281    0.1890  -13.6510 H         1 MOL1        0.0000
     30  H          24.7791   -1.4795   -7.8909 H         1 MOL1        0.0000
     31  H          22.6905   -1.2302   -9.1017 H         1 MOL1        0.0000
     32  H          20.9792    1.3620  -10.2594 H         1 MOL1        0.0000
     33  H          17.8013   -1.4072   -9.6924 H         1 MOL1        0.0000
     34  H          21.2096   -2.5824  -11.9444 H         1 MOL1        0.0000
     35  H          27.3130    0.7844   -7.1551 H         1 MOL1        0.0000
     36  H          28.2244    1.1712   -8.5468 H         1 MOL1        0.0000
@<TRIPOS>BOND
     1      1      2 1 
     2      2      3 1 
     3      2      6 1 
     4      3      4 1 
     5      3     24 1 
     6      3     25 1 
     7      4      5 1 
     8      5      6 ar
     9      5     10 ar
    10      6      7 ar
    11      7      8 ar
    12      7     20 1 
    13      8      9 ar
    14      9     10 ar
    15     10     11 1 
    16     11     12 1 
    17     12     13 ar
    18     12     19 ar
    19     13     14 ar
    20     14     15 1 
    21     14     16 ar
    22     16     17 ar
    23     17     18 1 
    24     17     19 ar
    25     20     21 2 
    26     20     22 2 
    27     20     23 1 
    28      1     26 1 
    29      2     27 1 
    30      4     28 1 
    31      4     29 1 
    32      8     30 1 
    33      9     31 1 
    34     13     32 1 
    35     16     33 1 
    36     19     34 1 
    37     23     35 1 
    38     23     36 1 
@<TRIPOS>SUBSTRUCTURE
     1 MOL1         1 MOLECULE 1 A  MOL 
# Molecule written by the XED library from Cresset
