@<TRIPOS>MOLECULE
289
    38     40      1
SMALL
USER_CHARGES
@<TRIPOS>ATOM
      1  O          27.9755    1.1669  -10.8324 O.3       1 MOL1        0.0000
      2  C          27.2390    0.1841  -11.5554 C.3       1 MOL1        0.0000
      3  C          26.5477    0.7660  -12.7999 C.3       1 MOL1        0.0000
      4  C          25.2049    0.0635  -12.9045 C.3       1 MOL1        0.0000
      5  C          24.8937   -0.3001  -11.4771 C.ar      1 MOL1        0.0000
      6  C          26.0788   -0.3727  -10.7381 C.ar      1 MOL1        0.0000
      7  C          26.0458   -0.8976   -9.4395 C.ar      1 MOL1        0.0000
      8  C          24.8156   -1.2035   -8.8587 C.ar      1 MOL1        0.0000
      9  C          23.6292   -1.0361   -9.5643 C.ar      1 MOL1        0.0000
     10  C          23.6659   -0.6025  -10.8934 C.ar      1 MOL1        0.0000
     11  O          22.5632   -0.4733  -11.7055 O.3       1 MOL1        0.0000
     12  C          21.3077   -0.7045  -11.2158 C.ar      1 MOL1        0.0000
     13  C          20.6819   -1.9238  -11.4625 C.ar      1 MOL1        0.0000
     14  C          19.4032   -2.1541  -10.9696 C.ar      1 MOL1        0.0000
     15  F          18.7805   -3.3217  -11.2165 F         1 MOL1        0.0000
     16  C          18.7532   -1.1722  -10.2314 C.ar      1 MOL1        0.0000
     17  C          19.3626    0.0638  -10.0081 C.ar      1 MOL1        0.0000
     18  C          18.6843    1.1242   -9.2858 C.1       1 MOL1        0.0000
     19  C          20.6520    0.2828  -10.4822 C.ar      1 MOL1        0.0000
     20  S          27.5268   -1.2129   -8.4905 S.3       1 MOL1        0.0000
     21  O          27.2281   -2.2833   -7.5336 O.2       1 MOL1        0.0000
     22  O          28.6527   -1.3615   -9.4143 O.2       1 MOL1        0.0000
     23  F          26.2783    2.0422  -12.5491 F         1 MOL1        0.0000
     24  N          18.1517    1.9670   -8.7031 N.1       1 MOL1        0.0000
     25  F          24.3119    0.8426  -13.5117 F         1 MOL1        0.0000
     26  C          27.7464    0.3832   -7.5445 C.3       1 MOL1        0.0000
     27  H          28.6278    1.5780  -11.4159 H         1 MOL1        0.0000
     28  H          27.8865   -0.6394  -11.8578 H         1 MOL1        0.0000
     29  H          27.1456    0.7501  -13.7119 H         1 MOL1        0.0000
     30  H          25.2774   -0.8290  -13.5267 H         1 MOL1        0.0000
     31  H          24.7771   -1.6047   -7.8636 H         1 MOL1        0.0000
     32  H          22.6940   -1.2991   -9.0913 H         1 MOL1        0.0000
     33  H          21.1919   -2.6924  -12.0201 H         1 MOL1        0.0000
     34  H          17.7867   -1.4057   -9.8300 H         1 MOL1        0.0000
     35  H          21.1501    1.2108  -10.2637 H         1 MOL1        0.0000
     36  H          28.7144    0.3301   -7.0642 H         1 MOL1        0.0000
     37  H          26.9498    0.4724   -6.8102 H         1 MOL1        0.0000
     38  H          27.7216    1.2218   -8.2383 H         1 MOL1        0.0000
@<TRIPOS>BOND
     1      1      2 1 
     2      2      3 1 
     3      2      6 1 
     4      3      4 1 
     5      3     23 1 
     6      4      5 1 
     7      4     25 1 
     8      5      6 ar
     9      5     10 ar
    10      6      7 ar
    11      7      8 ar
    12      7     20 1 
    13      8      9 ar
    14      9     10 ar
    15     10     11 1 
    16     11     12 1 
    17     12     13 ar
    18     12     19 ar
    19     13     14 ar
    20     14     15 1 
    21     14     16 ar
    22     16     17 ar
    23     17     18 1 
    24     17     19 ar
    25     18     24 3 
    26     20     21 2 
    27     20     22 2 
    28     20     26 1 
    29      1     27 1 
    30      2     28 1 
    31      3     29 1 
    32      4     30 1 
    33      8     31 1 
    34      9     32 1 
    35     13     33 1 
    36     16     34 1 
    37     19     35 1 
    38     26     36 1 
    39     26     37 1 
    40     26     38 1 
@<TRIPOS>SUBSTRUCTURE
     1 MOL1         1 MOLECULE 1 A  MOL 
# Molecule written by the XED library from Cresset
