@<TRIPOS>MOLECULE
290
    39     41      1
SMALL
USER_CHARGES
@<TRIPOS>ATOM
      1  N          27.5740    1.5625  -11.2291 N.3       1 MOL1        0.0000
      2  C          27.1541    0.2576  -11.6910 C.3       1 MOL1        0.0000
      3  C          26.5095    0.3461  -13.0777 C.3       1 MOL1        0.0000
      4  C          25.0290    0.5954  -12.8450 C.3       1 MOL1        0.0000
      5  C          24.8037   -0.0602  -11.4984 C.ar      1 MOL1        0.0000
      6  C          26.0092   -0.2240  -10.8090 C.ar      1 MOL1        0.0000
      7  C          26.0109   -0.7777   -9.5207 C.ar      1 MOL1        0.0000
      8  C          24.7959   -1.0889   -8.9045 C.ar      1 MOL1        0.0000
      9  C          23.5992   -0.9223   -9.5915 C.ar      1 MOL1        0.0000
     10  C          23.5984   -0.4194  -10.8961 C.ar      1 MOL1        0.0000
     11  O          22.4824   -0.2843  -11.6898 O.3       1 MOL1        0.0000
     12  C          21.2448   -0.5748  -11.1956 C.ar      1 MOL1        0.0000
     13  C          20.6740   -1.8289  -11.4024 C.ar      1 MOL1        0.0000
     14  C          19.4243   -2.1094  -10.8700 C.ar      1 MOL1        0.0000
     15  F          18.8514   -3.3146  -11.0611 F         1 MOL1        0.0000
     16  C          18.7414   -1.1444  -10.1434 C.ar      1 MOL1        0.0000
     17  C          19.2871    0.1244   -9.9694 C.ar      1 MOL1        0.0000
     18  C          18.5764    1.1678   -9.2409 C.1       1 MOL1        0.0000
     19  C          20.5463    0.3914  -10.4687 C.ar      1 MOL1        0.0000
     20  S          27.5079   -1.0807   -8.5946 S.3       1 MOL1        0.0000
     21  O          28.5661   -1.4034   -9.5526 O.2       1 MOL1        0.0000
     22  O          27.2082   -2.0475   -7.5362 O.2       1 MOL1        0.0000
     23  C          27.8937    0.5866   -7.7878 C.3       1 MOL1        0.0000
     24  F          27.0532    1.2780  -13.8693 F         1 MOL1        0.0000
     25  F          26.6434   -0.8310  -13.6723 F         1 MOL1        0.0000
     26  N          18.0158    1.9913   -8.6668 N.1       1 MOL1        0.0000
     27  F          29.1657    0.5265   -7.4607 F         1 MOL1        0.0000
     28  F          27.7528    1.6123   -8.6183 F         1 MOL1        0.0000
     29  F          27.1110    0.7689   -6.7327 F         1 MOL1        0.0000
     30  H          28.0811    1.4599  -10.3770 H         1 MOL1        0.0000
     31  H          28.2888    1.9365  -11.8603 H         1 MOL1        0.0000
     32  H          28.0018   -0.4423  -11.7297 H         1 MOL1        0.0000
     33  H          24.4058    0.1882  -13.6467 H         1 MOL1        0.0000
     34  H          24.8104    1.6599  -12.7803 H         1 MOL1        0.0000
     35  H          24.7747   -1.4836   -7.9003 H         1 MOL1        0.0000
     36  H          22.6851   -1.2365   -9.1107 H         1 MOL1        0.0000
     37  H          21.2092   -2.5946  -11.9437 H         1 MOL1        0.0000
     38  H          17.8072   -1.4207   -9.7067 H         1 MOL1        0.0000
     39  H          21.0053    1.3469  -10.2638 H         1 MOL1        0.0000
@<TRIPOS>BOND
     1      1      2 1 
     2      2      3 1 
     3      2      6 1 
     4      3      4 1 
     5      3     24 1 
     6      3     25 1 
     7      4      5 1 
     8      5      6 ar
     9      5     10 ar
    10      6      7 ar
    11      7      8 ar
    12      7     20 1 
    13      8      9 ar
    14      9     10 ar
    15     10     11 1 
    16     11     12 1 
    17     12     13 ar
    18     12     19 ar
    19     13     14 ar
    20     14     15 1 
    21     14     16 ar
    22     16     17 ar
    23     17     18 1 
    24     17     19 ar
    25     18     26 3 
    26     20     21 2 
    27     20     22 2 
    28     20     23 1 
    29     23     27 1 
    30     23     28 1 
    31     23     29 1 
    32      1     30 1 
    33      1     31 1 
    34      2     32 1 
    35      4     33 1 
    36      4     34 1 
    37      8     35 1 
    38      9     36 1 
    39     13     37 1 
    40     16     38 1 
    41     19     39 1 
@<TRIPOS>SUBSTRUCTURE
     1 MOL1         1 MOLECULE 1 A  MOL 
# Molecule written by the XED library from Cresset
