@<TRIPOS>MOLECULE
30
    31     32      1
SMALL
USER_CHARGES
@<TRIPOS>ATOM
      1  CL         27.5485    0.3136  -11.5391 Cl        1 MOL1        0.0000
      2  C          24.8372   -0.0289  -11.4983 C.ar      1 MOL1        0.0000
      3  C          26.0452   -0.2007  -10.8100 C.ar      1 MOL1        0.0000
      4  C          26.0339   -0.7721   -9.5247 C.ar      1 MOL1        0.0000
      5  C          24.8128   -1.0812   -8.9236 C.ar      1 MOL1        0.0000
      6  C          23.6194   -0.9276   -9.6191 C.ar      1 MOL1        0.0000
      7  C          23.6217   -0.4318  -10.9248 C.ar      1 MOL1        0.0000
      8  O          22.4810   -0.3037  -11.6892 O.3       1 MOL1        0.0000
      9  C          21.2399   -0.5885  -11.1701 C.ar      1 MOL1        0.0000
     10  C          20.6662   -1.8374  -11.3902 C.ar      1 MOL1        0.0000
     11  C          19.4091   -2.1170  -10.8684 C.ar      1 MOL1        0.0000
     12  F          18.8393   -3.3237  -11.0680 F         1 MOL1        0.0000
     13  C          18.7264   -1.1511  -10.1393 C.ar      1 MOL1        0.0000
     14  C          19.2825    0.1244   -9.9582 C.ar      1 MOL1        0.0000
     15  C          18.5614    1.1690   -9.2489 C.1       1 MOL1        0.0000
     16  C          20.5500    0.3803  -10.4464 C.ar      1 MOL1        0.0000
     17  S          27.5166   -1.0965   -8.5685 S.3       1 MOL1        0.0000
     18  O          27.1757   -2.0254   -7.4877 O.2       1 MOL1        0.0000
     19  O          28.5973   -1.4633   -9.4875 O.2       1 MOL1        0.0000
     20  C          27.8897    0.6007   -7.8518 C.3       1 MOL1        0.0000
     21  F          27.7354    1.5229   -8.8032 F         1 MOL1        0.0000
     22  F          27.0123    0.7944   -6.8835 F         1 MOL1        0.0000
     23  C          24.8330    0.6084  -12.8132 C.1       1 MOL1        0.0000
     24  N          24.8420    1.1182  -13.8525 N.1       1 MOL1        0.0000
     25  N          18.0078    2.0075   -8.6709 N.1       1 MOL1        0.0000
     26  H          24.7836   -1.4731   -7.9183 H         1 MOL1        0.0000
     27  H          22.6985   -1.2282   -9.1371 H         1 MOL1        0.0000
     28  H          21.1987   -2.5965  -11.9433 H         1 MOL1        0.0000
     29  H          17.7864   -1.4317   -9.6991 H         1 MOL1        0.0000
     30  H          21.0075    1.3441  -10.2726 H         1 MOL1        0.0000
     31  H          28.8873    0.6401   -7.4156 H         1 MOL1        0.0000
@<TRIPOS>BOND
     1      1      3 1 
     2      2      3 ar
     3      2      7 ar
     4      2     23 1 
     5      3      4 ar
     6      4      5 ar
     7      4     17 1 
     8      5      6 ar
     9      6      7 ar
    10      7      8 1 
    11      8      9 1 
    12      9     10 ar
    13      9     16 ar
    14     10     11 ar
    15     11     12 1 
    16     11     13 ar
    17     13     14 ar
    18     14     15 1 
    19     14     16 ar
    20     15     25 3 
    21     17     18 2 
    22     17     19 2 
    23     17     20 1 
    24     20     21 1 
    25     20     22 1 
    26     23     24 3 
    27      5     26 1 
    28      6     27 1 
    29     10     28 1 
    30     13     29 1 
    31     16     30 1 
    32     20     31 1 
@<TRIPOS>SUBSTRUCTURE
     1 MOL1         1 MOLECULE 1 A  MOL 
# Molecule written by the XED library from Cresset
