@<TRIPOS>MOLECULE
31
    34     35      1
SMALL
USER_CHARGES
@<TRIPOS>ATOM
      1  C          27.3687    0.2213  -11.4876 C.3       1 MOL1        0.0000
      2  C          24.8311   -0.0329  -11.4879 C.ar      1 MOL1        0.0000
      3  C          26.0513   -0.2060  -10.8090 C.ar      1 MOL1        0.0000
      4  C          26.0346   -0.7690   -9.5108 C.ar      1 MOL1        0.0000
      5  C          24.8065   -1.0848   -8.9114 C.ar      1 MOL1        0.0000
      6  C          23.6126   -0.9312   -9.6030 C.ar      1 MOL1        0.0000
      7  C          23.6048   -0.4328  -10.9121 C.ar      1 MOL1        0.0000
      8  O          22.4609   -0.3198  -11.6757 O.3       1 MOL1        0.0000
      9  C          21.2233   -0.5921  -11.1719 C.ar      1 MOL1        0.0000
     10  C          20.6530   -1.8418  -11.3921 C.ar      1 MOL1        0.0000
     11  C          19.3963   -2.1272  -10.8608 C.ar      1 MOL1        0.0000
     12  C          18.7071   -1.1442  -10.1414 C.ar      1 MOL1        0.0000
     13  C          19.2670    0.1229   -9.9620 C.ar      1 MOL1        0.0000
     14  C          18.5714    1.1621   -9.2281 C.1       1 MOL1        0.0000
     15  C          20.5386    0.3929  -10.4709 C.ar      1 MOL1        0.0000
     16  S          27.5350   -1.0864   -8.5576 S.3       1 MOL1        0.0000
     17  O          27.1968   -2.0245   -7.4788 O.2       1 MOL1        0.0000
     18  O          28.6157   -1.4679   -9.4665 O.2       1 MOL1        0.0000
     19  C          27.9318    0.6142   -7.8020 C.3       1 MOL1        0.0000
     20  F          27.7568    1.5787   -8.6983 F         1 MOL1        0.0000
     21  F          27.1155    0.8088   -6.7700 F         1 MOL1        0.0000
     22  C          24.8004    0.6001  -12.7879 C.1       1 MOL1        0.0000
     23  N          24.7996    1.1238  -13.8126 N.1       1 MOL1        0.0000
     24  N          18.0264    1.9917   -8.6305 N.1       1 MOL1        0.0000
     25  H          28.1184    0.5861  -10.8006 H         1 MOL1        0.0000
     26  H          27.2481    1.0576  -12.1796 H         1 MOL1        0.0000
     27  H          27.7954   -0.6318  -12.0131 H         1 MOL1        0.0000
     28  H          24.7776   -1.4910   -7.9124 H         1 MOL1        0.0000
     29  H          22.6867   -1.2338   -9.1282 H         1 MOL1        0.0000
     30  H          21.1960   -2.5887  -11.9550 H         1 MOL1        0.0000
     31  H          18.9723   -3.1105  -11.0023 H         1 MOL1        0.0000
     32  H          17.7461   -1.3892   -9.7168 H         1 MOL1        0.0000
     33  H          21.0038    1.3570  -10.3207 H         1 MOL1        0.0000
     34  H          28.9726    0.6087   -7.4924 H         1 MOL1        0.0000
@<TRIPOS>BOND
     1      1      3 1 
     2      2      3 ar
     3      2      7 ar
     4      2     22 1 
     5      3      4 ar
     6      4      5 ar
     7      4     16 1 
     8      5      6 ar
     9      6      7 ar
    10      7      8 1 
    11      8      9 1 
    12      9     10 ar
    13      9     15 ar
    14     10     11 ar
    15     11     12 ar
    16     12     13 ar
    17     13     14 1 
    18     13     15 ar
    19     14     24 3 
    20     16     17 2 
    21     16     18 2 
    22     16     19 1 
    23     19     20 1 
    24     19     21 1 
    25     22     23 3 
    26      1     25 1 
    27      1     26 1 
    28      1     27 1 
    29      5     28 1 
    30      6     29 1 
    31     10     30 1 
    32     11     31 1 
    33     12     32 1 
    34     15     33 1 
    35     19     34 1 
@<TRIPOS>SUBSTRUCTURE
     1 MOL1         1 MOLECULE 1 A  MOL 
# Molecule written by the XED library from Cresset
