@<TRIPOS>MOLECULE
336
    37     39      1
SMALL
USER_CHARGES
@<TRIPOS>ATOM
      1  O          28.0017    1.1554  -10.7561 O.3       1 MOL1        0.0000
      2  C          27.1887    0.2094  -11.4461 C.3       1 MOL1        0.0000
      3  C          26.5170    0.8013  -12.6963 C.3       1 MOL1        0.0000
      4  C          25.1920    0.0739  -12.8350 C.3       1 MOL1        0.0000
      5  C          24.8410   -0.2394  -11.4041 C.ar      1 MOL1        0.0000
      6  C          25.9976   -0.2708  -10.6132 C.ar      1 MOL1        0.0000
      7  C          25.9018   -0.7012   -9.2751 C.ar      1 MOL1        0.0000
      8  C          24.6420   -0.9417   -8.7237 C.ar      1 MOL1        0.0000
      9  C          23.4967   -0.8363   -9.5019 C.ar      1 MOL1        0.0000
     10  C          23.5906   -0.5071  -10.8564 C.ar      1 MOL1        0.0000
     11  O          22.5177   -0.4372  -11.7191 O.3       1 MOL1        0.0000
     12  C          21.2475   -0.6509  -11.2594 C.ar      1 MOL1        0.0000
     13  C          20.6133   -1.8570  -11.5324 C.ar      1 MOL1        0.0000
     14  C          19.3358   -2.0915  -11.0377 C.ar      1 MOL1        0.0000
     15  F          18.7005   -3.2450  -11.3168 F         1 MOL1        0.0000
     16  C          18.6966   -1.1280  -10.2666 C.ar      1 MOL1        0.0000
     17  C          19.3124    0.1012  -10.0242 C.ar      1 MOL1        0.0000
     18  C          18.6517    1.1490   -9.2706 C.1       1 MOL1        0.0000
     19  C          20.5958    0.3258  -10.5084 C.ar      1 MOL1        0.0000
     20  S          27.2999   -1.0274   -8.2059 S.3       1 MOL1        0.0000
     21  O          26.8468   -1.9518   -7.1631 O.2       1 MOL1        0.0000
     22  O          28.4307   -1.3569   -9.0788 O.2       1 MOL1        0.0000
     23  F          26.2251    2.0652  -12.4186 F         1 MOL1        0.0000
     24  N          18.1329    1.9838   -8.6644 N.1       1 MOL1        0.0000
     25  F          24.3006    0.8164  -13.4952 F         1 MOL1        0.0000
     26  N          27.7092    0.4639   -7.4488 N.3       1 MOL1        0.0000
     27  H          28.5314    1.6554  -11.3951 H         1 MOL1        0.0000
     28  H          27.7885   -0.6501  -11.7494 H         1 MOL1        0.0000
     29  H          27.1367    0.8148  -13.5962 H         1 MOL1        0.0000
     30  H          25.3024   -0.8318  -13.4322 H         1 MOL1        0.0000
     31  H          24.5459   -1.2350   -7.6890 H         1 MOL1        0.0000
     32  H          22.5403   -1.0632   -9.0641 H         1 MOL1        0.0000
     33  H          21.1114   -2.6124  -12.1160 H         1 MOL1        0.0000
     34  H          17.7386   -1.3762   -9.8563 H         1 MOL1        0.0000
     35  H          21.0990    1.2456  -10.2714 H         1 MOL1        0.0000
     36  H          26.9316    0.7997   -6.8682 H         1 MOL1        0.0000
     37  H          28.0360    1.1649   -8.1144 H         1 MOL1        0.0000
@<TRIPOS>BOND
     1      1      2 1 
     2      2      3 1 
     3      2      6 1 
     4      3      4 1 
     5      3     23 1 
     6      4      5 1 
     7      4     25 1 
     8      5      6 ar
     9      5     10 ar
    10      6      7 ar
    11      7      8 ar
    12      7     20 1 
    13      8      9 ar
    14      9     10 ar
    15     10     11 1 
    16     11     12 1 
    17     12     13 ar
    18     12     19 ar
    19     13     14 ar
    20     14     15 1 
    21     14     16 ar
    22     16     17 ar
    23     17     18 1 
    24     17     19 ar
    25     18     24 3 
    26     20     21 2 
    27     20     22 2 
    28     20     26 1 
    29      1     27 1 
    30      2     28 1 
    31      3     29 1 
    32      4     30 1 
    33      8     31 1 
    34      9     32 1 
    35     13     33 1 
    36     16     34 1 
    37     19     35 1 
    38     26     36 1 
    39     26     37 1 
@<TRIPOS>SUBSTRUCTURE
     1 MOL1         1 MOLECULE 1 A  MOL 
# Molecule written by the XED library from Cresset
