@<TRIPOS>MOLECULE
35
    34     35      1
SMALL
USER_CHARGES
@<TRIPOS>ATOM
      1  C          27.3436    0.2181  -11.4886 C.3       1 MOL1        0.0000
      2  C          24.8143   -0.0349  -11.4934 C.ar      1 MOL1        0.0000
      3  C          26.0359   -0.2157  -10.8128 C.ar      1 MOL1        0.0000
      4  C          26.0279   -0.7798   -9.5188 C.ar      1 MOL1        0.0000
      5  C          24.8027   -1.0842   -8.9107 C.ar      1 MOL1        0.0000
      6  C          23.6077   -0.9361   -9.6066 C.ar      1 MOL1        0.0000
      7  C          23.6033   -0.4369  -10.9127 C.ar      1 MOL1        0.0000
      8  O          22.4684   -0.3083  -11.6869 O.3       1 MOL1        0.0000
      9  C          21.2346   -0.5820  -11.1843 C.ar      1 MOL1        0.0000
     10  C          20.6688   -1.8348  -11.3989 C.ar      1 MOL1        0.0000
     11  C          19.4172   -2.1128  -10.8633 C.ar      1 MOL1        0.0000
     12  C          18.7392   -1.1398  -10.1370 C.ar      1 MOL1        0.0000
     13  C          19.2891    0.1256   -9.9557 C.ar      1 MOL1        0.0000
     14  CL         18.4298    1.3495   -9.0945 Cl        1 MOL1        0.0000
     15  C          20.5490    0.3955  -10.4695 C.ar      1 MOL1        0.0000
     16  S          27.5361   -1.1002   -8.5609 S.3       1 MOL1        0.0000
     17  O          27.1915   -2.0165   -7.4763 O.2       1 MOL1        0.0000
     18  O          28.6294   -1.4923   -9.4625 O.2       1 MOL1        0.0000
     19  C          27.9209    0.6056   -7.8457 C.3       1 MOL1        0.0000
     20  F          27.8955    1.4798   -8.8507 F         1 MOL1        0.0000
     21  F          26.9875    0.8733   -6.9434 F         1 MOL1        0.0000
     22  C          24.7678    0.5910  -12.8118 C.1       1 MOL1        0.0000
     23  N          24.7397    1.0868  -13.8577 N.1       1 MOL1        0.0000
     24  O          27.7506    1.4985  -11.0563 O.3       1 MOL1        0.0000
     25  F          18.8551   -3.3220  -11.0512 F         1 MOL1        0.0000
     26  H          28.1384   -0.4849  -11.3364 H         1 MOL1        0.0000
     27  H          27.2792    0.1852  -12.5694 H         1 MOL1        0.0000
     28  H          24.7669   -1.4583   -7.8977 H         1 MOL1        0.0000
     29  H          22.6880   -1.2361   -9.1232 H         1 MOL1        0.0000
     30  H          21.2037   -2.5885  -11.9555 H         1 MOL1        0.0000
     31  H          17.7939   -1.3817   -9.7021 H         1 MOL1        0.0000
     32  H          20.9933    1.3586  -10.2824 H         1 MOL1        0.0000
     33  H          28.8931    0.6288   -7.3559 H         1 MOL1        0.0000
     34  H          28.4520    1.8114  -11.6736 H         1 MOL1        0.0000
@<TRIPOS>BOND
     1      1      3 1 
     2      1     24 1 
     3      2      3 ar
     4      2      7 ar
     5      2     22 1 
     6      3      4 ar
     7      4      5 ar
     8      4     16 1 
     9      5      6 ar
    10      6      7 ar
    11      7      8 1 
    12      8      9 1 
    13      9     10 ar
    14      9     15 ar
    15     10     11 ar
    16     11     12 ar
    17     11     25 1 
    18     12     13 ar
    19     13     14 1 
    20     13     15 ar
    21     16     17 2 
    22     16     18 2 
    23     16     19 1 
    24     19     20 1 
    25     19     21 1 
    26     22     23 3 
    27      1     26 1 
    28      1     27 1 
    29      5     28 1 
    30      6     29 1 
    31     10     30 1 
    32     12     31 1 
    33     15     32 1 
    34     19     33 1 
    35     24     34 1 
@<TRIPOS>SUBSTRUCTURE
     1 MOL1         1 MOLECULE 1 A  MOL 
# Molecule written by the XED library from Cresset
