@<TRIPOS>MOLECULE
54
    36     37      1
SMALL
USER_CHARGES
@<TRIPOS>ATOM
      1  C          27.3739    0.2021  -11.5257 C.3       1 MOL1        0.0000
      2  C          24.8166   -0.0727  -11.5403 C.ar      1 MOL1        0.0000
      3  C          26.0692   -0.2356  -10.8548 C.ar      1 MOL1        0.0000
      4  C          26.0425   -0.7765   -9.5491 C.ar      1 MOL1        0.0000
      5  C          24.8317   -1.0884   -8.9403 C.ar      1 MOL1        0.0000
      6  C          23.6267   -0.9347   -9.6164 C.ar      1 MOL1        0.0000
      7  C          23.6229   -0.4433  -10.9232 C.ar      1 MOL1        0.0000
      8  O          22.4601   -0.2995  -11.6659 O.3       1 MOL1        0.0000
      9  C          21.2313   -0.5849  -11.1558 C.ar      1 MOL1        0.0000
     10  C          20.6536   -1.8315  -11.3749 C.ar      1 MOL1        0.0000
     11  C          19.3870   -2.1109  -10.8587 C.ar      1 MOL1        0.0000
     12  C          18.7018   -1.1325  -10.1312 C.ar      1 MOL1        0.0000
     13  C          19.2617    0.1200   -9.9382 C.ar      1 MOL1        0.0000
     14  CL         18.4013    1.3488   -9.0779 Cl        1 MOL1        0.0000
     15  C          20.5319    0.3986  -10.4453 C.ar      1 MOL1        0.0000
     16  S          27.5413   -1.0868   -8.5786 S.3       1 MOL1        0.0000
     17  O          27.1521   -2.0097   -7.4995 O.2       1 MOL1        0.0000
     18  C          27.9317    0.5862   -7.8045 C.3       1 MOL1        0.0000
     19  C          24.7489    0.5863  -12.9072 C.3       1 MOL1        0.0000
     20  F          18.8204   -3.3078  -11.0704 F         1 MOL1        0.0000
     21  O          28.6431   -1.4626   -9.4346 O.2       1 MOL1        0.0000
     22  O          27.8838    1.4066  -10.9877 O.3       1 MOL1        0.0000
     23  F          25.0512    1.8655  -12.6953 F         1 MOL1        0.0000
     24  F          25.5439    0.0623  -13.8379 F         1 MOL1        0.0000
     25  H          28.0990   -0.6021  -11.4607 H         1 MOL1        0.0000
     26  H          27.3066    0.3708  -12.5896 H         1 MOL1        0.0000
     27  H          24.7932   -1.4850   -7.9329 H         1 MOL1        0.0000
     28  H          22.7096   -1.2257   -9.1246 H         1 MOL1        0.0000
     29  H          21.1835   -2.5849  -11.9420 H         1 MOL1        0.0000
     30  H          17.7315   -1.3728   -9.7222 H         1 MOL1        0.0000
     31  H          20.9738    1.3666  -10.2947 H         1 MOL1        0.0000
     32  H          28.9058    0.4975   -7.3383 H         1 MOL1        0.0000
     33  H          27.1560    0.8615   -7.0926 H         1 MOL1        0.0000
     34  H          27.9947    1.3445   -8.5786 H         1 MOL1        0.0000
     35  H          23.7601    0.5443  -13.3706 H         1 MOL1        0.0000
     36  H          28.5336    1.7915  -11.6096 H         1 MOL1        0.0000
@<TRIPOS>BOND
     1      1      3 1 
     2      1     22 1 
     3      2      3 ar
     4      2      7 ar
     5      2     19 1 
     6      3      4 ar
     7      4      5 ar
     8      4     16 1 
     9      5      6 ar
    10      6      7 ar
    11      7      8 1 
    12      8      9 1 
    13      9     10 ar
    14      9     15 ar
    15     10     11 ar
    16     11     12 ar
    17     11     20 1 
    18     12     13 ar
    19     13     14 1 
    20     13     15 ar
    21     16     17 2 
    22     16     18 1 
    23     16     21 2 
    24     19     23 1 
    25     19     24 1 
    26      1     25 1 
    27      1     26 1 
    28      5     27 1 
    29      6     28 1 
    30     10     29 1 
    31     12     30 1 
    32     15     31 1 
    33     18     32 1 
    34     18     33 1 
    35     18     34 1 
    36     19     35 1 
    37     22     36 1 
@<TRIPOS>SUBSTRUCTURE
     1 MOL1         1 MOLECULE 1 A  MOL 
# Molecule written by the XED library from Cresset
