@<TRIPOS>MOLECULE
61
    37     39      1
SMALL
USER_CHARGES
@<TRIPOS>ATOM
      1  O          27.6141    1.5314  -11.1645 O.3       1 MOL1        0.0000
      2  C          27.1537    0.2857  -11.6482 C.3       1 MOL1        0.0000
      3  C          26.5383    0.4235  -13.0455 C.3       1 MOL1        0.0000
      4  C          25.0405    0.6014  -12.8272 C.3       1 MOL1        0.0000
      5  C          24.8079   -0.0680  -11.4919 C.ar      1 MOL1        0.0000
      6  C          26.0128   -0.2402  -10.8022 C.ar      1 MOL1        0.0000
      7  C          26.0160   -0.7777   -9.5061 C.ar      1 MOL1        0.0000
      8  C          24.7980   -1.0852   -8.8991 C.ar      1 MOL1        0.0000
      9  C          23.6016   -0.9305   -9.5931 C.ar      1 MOL1        0.0000
     10  C          23.6009   -0.4247  -10.8990 C.ar      1 MOL1        0.0000
     11  O          22.4839   -0.2869  -11.6927 O.3       1 MOL1        0.0000
     12  C          21.2424   -0.5716  -11.1962 C.ar      1 MOL1        0.0000
     13  C          20.6732   -1.8275  -11.4044 C.ar      1 MOL1        0.0000
     14  C          19.4230   -2.1091  -10.8655 C.ar      1 MOL1        0.0000
     15  F          18.8559   -3.3155  -11.0537 F         1 MOL1        0.0000
     16  C          18.7437   -1.1402  -10.1389 C.ar      1 MOL1        0.0000
     17  C          19.2905    0.1241   -9.9552 C.ar      1 MOL1        0.0000
     18  CL         18.4313    1.3474   -9.0928 Cl        1 MOL1        0.0000
     19  C          20.5489    0.3957  -10.4700 C.ar      1 MOL1        0.0000
     20  S          27.5324   -1.0709   -8.5888 S.3       1 MOL1        0.0000
     21  O          27.2354   -2.0179   -7.5103 O.2       1 MOL1        0.0000
     22  O          28.5854   -1.4059   -9.5449 O.2       1 MOL1        0.0000
     23  C          27.9315    0.6133   -7.8461 C.3       1 MOL1        0.0000
     24  F          27.0964    0.8246   -6.8331 F         1 MOL1        0.0000
     25  H          28.3683    1.8194  -11.7071 H         1 MOL1        0.0000
     26  H          27.9719   -0.4315  -11.7022 H         1 MOL1        0.0000
     27  H          26.6895   -0.4969  -13.6161 H         1 MOL1        0.0000
     28  H          26.9723    1.2325  -13.6362 H         1 MOL1        0.0000
     29  H          24.8029    1.6660  -12.7801 H         1 MOL1        0.0000
     30  H          24.4290    0.1742  -13.6223 H         1 MOL1        0.0000
     31  H          24.7779   -1.4665   -7.8901 H         1 MOL1        0.0000
     32  H          22.6843   -1.2383   -9.1176 H         1 MOL1        0.0000
     33  H          21.2051   -2.5890  -11.9516 H         1 MOL1        0.0000
     34  H          17.8031   -1.3878   -9.7030 H         1 MOL1        0.0000
     35  H          20.9911    1.3546  -10.2655 H         1 MOL1        0.0000
     36  H          28.9528    0.5965   -7.4752 H         1 MOL1        0.0000
     37  H          27.8095    1.3876   -8.6011 H         1 MOL1        0.0000
@<TRIPOS>BOND
     1      1      2 1 
     2      2      3 1 
     3      2      6 1 
     4      3      4 1 
     5      4      5 1 
     6      5      6 ar
     7      5     10 ar
     8      6      7 ar
     9      7      8 ar
    10      7     20 1 
    11      8      9 ar
    12      9     10 ar
    13     10     11 1 
    14     11     12 1 
    15     12     13 ar
    16     12     19 ar
    17     13     14 ar
    18     14     15 1 
    19     14     16 ar
    20     16     17 ar
    21     17     18 1 
    22     17     19 ar
    23     20     21 2 
    24     20     22 2 
    25     20     23 1 
    26     23     24 1 
    27      1     25 1 
    28      2     26 1 
    29      3     27 1 
    30      3     28 1 
    31      4     29 1 
    32      4     30 1 
    33      8     31 1 
    34      9     32 1 
    35     13     33 1 
    36     16     34 1 
    37     19     35 1 
    38     23     36 1 
    39     23     37 1 
@<TRIPOS>SUBSTRUCTURE
     1 MOL1         1 MOLECULE 1 A  MOL 
# Molecule written by the XED library from Cresset
