@<TRIPOS>MOLECULE
7a
    40     42      1
SMALL
USER_CHARGES
@<TRIPOS>ATOM
      1  O          27.8986    1.1686  -10.8159 O.3       1 MOL1        0.0000
      2  C          27.3063    0.0821  -11.4967 C.3       1 MOL1        0.0000
      3  C          26.7543    0.5309  -12.8435 C.3       1 MOL1        0.0000
      4  C          25.2972    0.0902  -12.9073 C.3       1 MOL1        0.0000
      5  C          24.9356   -0.2719  -11.4777 C.ar      1 MOL1        0.0000
      6  C          26.1058   -0.4336  -10.7289 C.ar      1 MOL1        0.0000
      7  C          26.0415   -0.9623   -9.4361 C.ar      1 MOL1        0.0000
      8  C          24.8001   -1.2235   -8.8639 C.ar      1 MOL1        0.0000
      9  C          23.6290   -0.9777   -9.5693 C.ar      1 MOL1        0.0000
     10  C          23.6838   -0.5129  -10.8898 C.ar      1 MOL1        0.0000
     11  O          22.5621   -0.2401  -11.6444 O.3       1 MOL1        0.0000
     12  C          21.3109   -0.5861  -11.1952 C.ar      1 MOL1        0.0000
     13  C          20.8153   -1.8606  -11.4562 C.ar      1 MOL1        0.0000
     14  C          19.5537   -2.2243  -11.0029 C.ar      1 MOL1        0.0000
     15  F          19.0721   -3.4508  -11.2863 F         1 MOL1        0.0000
     16  C          18.7894   -1.3253  -10.2644 C.ar      1 MOL1        0.0000
     17  C          19.2720   -0.0424  -10.0060 C.ar      1 MOL1        0.0000
     18  CL         18.3130    1.0837   -9.1138 Cl        1 MOL1        0.0000
     19  C          20.5312    0.3270  -10.4759 C.ar      1 MOL1        0.0000
     20  S          27.5140   -1.2559   -8.4651 S.3       1 MOL1        0.0000
     21  O          27.1933   -2.2794   -7.4639 O.2       1 MOL1        0.0000
     22  O          28.6255   -1.4828   -9.3950 O.2       1 MOL1        0.0000
     23  C          27.7388    0.4232   -7.6234 C.3       1 MOL1        0.0000
     24  F          27.7231    1.3759   -8.5583 F         1 MOL1        0.0000
     25  F          26.7479    0.5754   -6.7503 F         1 MOL1        0.0000
     26  C          24.4377    1.1669  -13.5390 C.3       1 MOL1        0.0000
     27  H          28.6114    1.5312  -11.3627 H         1 MOL1        0.0000
     28  H          28.0280   -0.7165  -11.6685 H         1 MOL1        0.0000
     29  H          26.8240    1.6206  -12.9191 H         1 MOL1        0.0000
     30  H          27.3250    0.1428  -13.6861 H         1 MOL1        0.0000
     31  H          25.2257   -0.8173  -13.5111 H         1 MOL1        0.0000
     32  H          24.7387   -1.6083   -7.8634 H         1 MOL1        0.0000
     33  H          22.6833   -1.1799   -9.0869 H         1 MOL1        0.0000
     34  H          21.4160   -2.5775  -11.9946 H         1 MOL1        0.0000
     35  H          17.8284   -1.6333   -9.8958 H         1 MOL1        0.0000
     36  H          20.9029    1.3142  -10.2637 H         1 MOL1        0.0000
     37  H          28.6860    0.4534   -7.0836 H         1 MOL1        0.0000
     38  H          23.4853    0.7664  -13.8251 H         1 MOL1        0.0000
     39  H          24.8788    1.5661  -14.4435 H         1 MOL1        0.0000
     40  H          24.2853    1.9768  -12.8310 H         1 MOL1        0.0000
@<TRIPOS>BOND
     1      1      2 1 
     2      2      3 1 
     3      2      6 1 
     4      3      4 1 
     5      4      5 1 
     6      4     26 1 
     7      5      6 ar
     8      5     10 ar
     9      6      7 ar
    10      7      8 ar
    11      7     20 1 
    12      8      9 ar
    13      9     10 ar
    14     10     11 1 
    15     11     12 1 
    16     12     13 ar
    17     12     19 ar
    18     13     14 ar
    19     14     15 1 
    20     14     16 ar
    21     16     17 ar
    22     17     18 1 
    23     17     19 ar
    24     20     21 2 
    25     20     22 2 
    26     20     23 1 
    27     23     24 1 
    28     23     25 1 
    29      1     27 1 
    30      2     28 1 
    31      3     29 1 
    32      3     30 1 
    33      4     31 1 
    34      8     32 1 
    35      9     33 1 
    36     13     34 1 
    37     16     35 1 
    38     19     36 1 
    39     23     37 1 
    40     26     38 1 
    41     26     39 1 
    42     26     40 1 
@<TRIPOS>SUBSTRUCTURE
     1 MOL1         1 MOLECULE 1 A  MOL 
# Molecule written by the XED library from Cresset
