@<TRIPOS>MOLECULE
CHEMBL3402751_2100
    43     46      1
SMALL
USER_CHARGES
@<TRIPOS>ATOM
      1  C          25.4546   34.0626   51.8681 C.3       1 MOL1        0.0000
      2  C          24.2458   33.5655   52.6084 C.ar      1 MOL1        0.0000
      3  C          23.0466   33.1217   52.0694 C.ar      1 MOL1        0.0000
      4  S          21.9546   32.7270   53.3515 S.3       1 MOL1        0.0000
      5  C          23.1994   33.1657   54.4892 C.ar      1 MOL1        0.0000
      6  N          24.3147   33.5726   53.9283 N.ar      1 MOL1        0.0000
      7  C          23.0109   32.9868   55.9673 C.ar      1 MOL1        0.0000
      8  C          24.0904   33.1252   56.8524 C.ar      1 MOL1        0.0000
      9  C          23.9482   32.8025   58.2023 C.ar      1 MOL1        0.0000
     10  C          22.7220   32.3503   58.6876 C.ar      1 MOL1        0.0000
     11  C          21.6224   32.2538   57.8330 C.ar      1 MOL1        0.0000
     12  C          20.2645   31.7859   58.3460 C.3       1 MOL1        0.0000
     13  N          19.9382   30.4029   57.9522 N.am      1 MOL1        0.0000
     14  N          19.4243   30.2333   56.6662 N.2       1 MOL1        0.0000
     15  C          19.0833   29.0741   56.1949 C.2       1 MOL1        0.0000
     16  C          19.3233   27.9339   57.0667 C.2       1 MOL1        0.0000
     17  C          19.8505   28.0858   58.3019 C.2       1 MOL1        0.0000
     18  C          20.1983   29.3876   58.8430 C.2       1 MOL1        0.0000
     19  O          20.6466   29.5267   59.9800 O.2       1 MOL1        0.0000
     20  C          18.4706   28.9052   54.8521 C.ar      1 MOL1        0.0000
     21  C          18.2408   27.6408   54.2812 C.ar      1 MOL1        0.0000
     22  C          17.5943   27.5179   53.0509 C.ar      1 MOL1        0.0000
     23  F          17.3595   26.2922   52.5332 F         1 MOL1        0.0000
     24  C          17.1807   28.6542   52.3604 C.ar      1 MOL1        0.0000
     25  C          17.4067   29.9163   52.9017 C.ar      1 MOL1        0.0000
     26  F          16.9990   31.0230   52.2407 F         1 MOL1        0.0000
     27  C          18.0491   30.0411   54.1333 C.ar      1 MOL1        0.0000
     28  C          21.7707   32.5908   56.4850 C.ar      1 MOL1        0.0000
     29  H          25.6022   35.1228   52.0676 H         1 MOL1        0.0000
     30  H          25.3498   33.9567   50.7902 H         1 MOL1        0.0000
     31  H          26.3609   33.5264   52.1497 H         1 MOL1        0.0000
     32  H          22.7549   33.0415   51.0331 H         1 MOL1        0.0000
     33  H          25.0615   33.4345   56.4916 H         1 MOL1        0.0000
     34  H          24.8015   32.8789   58.8636 H         1 MOL1        0.0000
     35  H          22.6301   32.0620   59.7238 H         1 MOL1        0.0000
     36  H          20.2058   31.9337   59.4280 H         1 MOL1        0.0000
     37  H          19.4974   32.4531   57.9494 H         1 MOL1        0.0000
     38  H          19.0880   26.9238   56.7639 H         1 MOL1        0.0000
     39  H          20.0252   27.2181   58.9207 H         1 MOL1        0.0000
     40  H          18.5424   26.7267   54.7670 H         1 MOL1        0.0000
     41  H          16.6799   28.5527   51.4100 H         1 MOL1        0.0000
     42  H          18.1922   31.0351   54.5284 H         1 MOL1        0.0000
     43  H          20.9150   32.4861   55.8355 H         1 MOL1        0.0000
@<TRIPOS>BOND
     1      1      2 1 
     2      2      3 ar
     3      2      6 ar
     4      3      4 ar
     5      4      5 ar
     6      5      6 ar
     7      5      7 1 
     8      7      8 ar
     9      7     28 ar
    10      8      9 ar
    11      9     10 ar
    12     10     11 ar
    13     11     12 1 
    14     11     28 ar
    15     12     13 1 
    16     13     14 1 
    17     13     18 am
    18     14     15 2 
    19     15     16 1 
    20     15     20 1 
    21     16     17 2 
    22     17     18 1 
    23     18     19 2 
    24     20     21 ar
    25     20     27 ar
    26     21     22 ar
    27     22     23 1 
    28     22     24 ar
    29     24     25 ar
    30     25     26 1 
    31     25     27 ar
    32      1     29 1 
    33      1     30 1 
    34      1     31 1 
    35      3     32 1 
    36      8     33 1 
    37      9     34 1 
    38     10     35 1 
    39     12     36 1 
    40     12     37 1 
    41     16     38 1 
    42     17     39 1 
    43     21     40 1 
    44     24     41 1 
    45     27     42 1 
    46     28     43 1 
@<TRIPOS>SUBSTRUCTURE
     1 MOL1         1 MOLECULE 1 A  MOL 
# Molecule written by the XED library from Cresset
