@<TRIPOS>MOLECULE
CHEMBL3402758_10
    60     63      1
SMALL
USER_CHARGES
@<TRIPOS>ATOM
      1  C          22.9152   29.8931   48.1561 C.3       1 MOL1        0.0000
      2  N          24.2551   30.6483   48.3008 N.4       1 MOL1        0.0000
      3  C          25.1218   30.4724   47.0330 C.3       1 MOL1        0.0000
      4  C          24.0434   32.1319   48.6858 C.3       1 MOL1        0.0000
      5  C          25.3059   32.6758   49.3763 C.3       1 MOL1        0.0000
      6  C          25.1552   34.0797   49.9601 C.3       1 MOL1        0.0000
      7  O          23.9394   34.1774   50.6857 O.3       1 MOL1        0.0000
      8  C          23.8832   33.7800   52.0009 C.ar      1 MOL1        0.0000
      9  C          24.9026   33.9265   52.9536 C.ar      1 MOL1        0.0000
     10  N          24.7110   33.6572   54.2732 N.ar      1 MOL1        0.0000
     11  C          23.4739   33.2169   54.6422 C.ar      1 MOL1        0.0000
     12  N          22.4457   33.0003   53.7775 N.ar      1 MOL1        0.0000
     13  C          22.6711   33.2812   52.4732 C.ar      1 MOL1        0.0000
     14  C          23.2175   32.9270   56.0927 C.ar      1 MOL1        0.0000
     15  C          24.2484   32.9698   57.0452 C.ar      1 MOL1        0.0000
     16  C          24.0210   32.6233   58.3754 C.ar      1 MOL1        0.0000
     17  C          22.7528   32.2188   58.7787 C.ar      1 MOL1        0.0000
     18  C          21.6995   32.1904   57.8666 C.ar      1 MOL1        0.0000
     19  C          20.3003   31.7816   58.3130 C.3       1 MOL1        0.0000
     20  N          19.9556   30.3998   57.9323 N.am      1 MOL1        0.0000
     21  N          19.4383   30.2304   56.6462 N.2       1 MOL1        0.0000
     22  C          19.0792   29.0738   56.1867 C.2       1 MOL1        0.0000
     23  C          19.3118   27.9338   57.0630 C.2       1 MOL1        0.0000
     24  C          19.8456   28.0864   58.2961 C.2       1 MOL1        0.0000
     25  C          20.1994   29.3881   58.8358 C.2       1 MOL1        0.0000
     26  O          20.6461   29.5264   59.9758 O.2       1 MOL1        0.0000
     27  C          18.4684   28.9016   54.8476 C.ar      1 MOL1        0.0000
     28  C          18.2473   27.6429   54.2625 C.ar      1 MOL1        0.0000
     29  C          17.6426   27.5449   53.0095 C.ar      1 MOL1        0.0000
     30  C          17.2575   28.7188   52.3615 C.ar      1 MOL1        0.0000
     31  N          17.4530   29.9497   52.8941 N.ar      1 MOL1        0.0000
     32  C          18.0494   30.0246   54.1102 C.ar      1 MOL1        0.0000
     33  C          21.9345   32.5596   56.5416 C.ar      1 MOL1        0.0000
     34  H          22.3844   29.9730   49.1063 H         1 MOL1        0.0000
     35  H          23.1448   28.8479   47.9357 H         1 MOL1        0.0000
     36  H          22.3491   30.3567   47.3451 H         1 MOL1        0.0000
     37  H          26.0669   30.9958   47.1787 H         1 MOL1        0.0000
     38  H          24.5712   30.8895   46.1875 H         1 MOL1        0.0000
     39  H          25.2982   29.4030   46.9013 H         1 MOL1        0.0000
     40  H          23.7656   32.6740   47.7807 H         1 MOL1        0.0000
     41  H          23.1997   32.1424   49.3791 H         1 MOL1        0.0000
     42  H          25.6010   31.9984   50.1797 H         1 MOL1        0.0000
     43  H          26.1285   32.7270   48.6630 H         1 MOL1        0.0000
     44  H          26.0407   34.3279   50.5421 H         1 MOL1        0.0000
     45  H          25.1051   34.8078   49.1483 H         1 MOL1        0.0000
     46  H          25.8688   34.3330   52.6953 H         1 MOL1        0.0000
     47  H          21.8477   33.1258   51.7966 H         1 MOL1        0.0000
     48  H          25.2516   33.2562   56.7614 H         1 MOL1        0.0000
     49  H          24.8370   32.6599   59.0843 H         1 MOL1        0.0000
     50  H          22.5869   31.9258   59.8043 H         1 MOL1        0.0000
     51  H          20.1888   31.9511   59.3862 H         1 MOL1        0.0000
     52  H          19.5784   32.4646   57.8623 H         1 MOL1        0.0000
     53  H          19.0698   26.9259   56.7633 H         1 MOL1        0.0000
     54  H          20.0130   27.2201   58.9200 H         1 MOL1        0.0000
     55  H          18.5430   26.7263   54.7473 H         1 MOL1        0.0000
     56  H          17.4839   26.5810   52.5493 H         1 MOL1        0.0000
     57  H          16.7860   28.6808   51.3901 H         1 MOL1        0.0000
     58  H          18.1755   31.0262   54.4931 H         1 MOL1        0.0000
     59  H          21.1066   32.5214   55.8496 H         1 MOL1        0.0000
     60  H          24.7582   30.2204   49.0693 H         1 MOL1        0.0000
@<TRIPOS>BOND
     1      1      2 1 
     2      2      3 1 
     3      2      4 1 
     4      4      5 1 
     5      5      6 1 
     6      6      7 1 
     7      7      8 1 
     8      8      9 ar
     9      8     13 ar
    10      9     10 ar
    11     10     11 ar
    12     11     12 ar
    13     11     14 1 
    14     12     13 ar
    15     14     15 ar
    16     14     33 ar
    17     15     16 ar
    18     16     17 ar
    19     17     18 ar
    20     18     19 1 
    21     18     33 ar
    22     19     20 1 
    23     20     21 1 
    24     20     25 am
    25     21     22 2 
    26     22     23 1 
    27     22     27 1 
    28     23     24 2 
    29     24     25 1 
    30     25     26 2 
    31     27     28 ar
    32     27     32 ar
    33     28     29 ar
    34     29     30 ar
    35     30     31 ar
    36     31     32 ar
    37      1     34 1 
    38      1     35 1 
    39      1     36 1 
    40      2     60 1 
    41      3     37 1 
    42      3     38 1 
    43      3     39 1 
    44      4     40 1 
    45      4     41 1 
    46      5     42 1 
    47      5     43 1 
    48      6     44 1 
    49      6     45 1 
    50      9     46 1 
    51     13     47 1 
    52     15     48 1 
    53     16     49 1 
    54     17     50 1 
    55     19     51 1 
    56     19     52 1 
    57     23     53 1 
    58     24     54 1 
    59     28     55 1 
    60     29     56 1 
    61     30     57 1 
    62     32     58 1 
    63     33     59 1 
@<TRIPOS>SUBSTRUCTURE
     1 MOL1         1 MOLECULE 1 A  MOL 
# Molecule written by the XED library from Cresset
