@<TRIPOS>MOLECULE
CHEMBL3402745_200
    45     47      1
SMALL
USER_CHARGES
@<TRIPOS>ATOM
      1  C          25.0527   33.1189   50.3652 C.3       1 MOL1        0.0000
      2  C          25.2375   33.9564   51.6334 C.3       1 MOL1        0.0000
      3  O          24.2400   33.5921   52.5819 O.3       1 MOL1        0.0000
      4  C          24.4282   33.8098   53.8972 C.2       1 MOL1        0.0000
      5  O          25.4390   34.3263   54.3763 O.2       1 MOL1        0.0000
      6  N          23.3098   33.3499   54.5803 N.am      1 MOL1        0.0000
      7  C          23.1429   33.1003   55.9525 C.ar      1 MOL1        0.0000
      8  C          24.1938   33.1211   56.8848 C.ar      1 MOL1        0.0000
      9  C          23.9667   32.7324   58.2058 C.ar      1 MOL1        0.0000
     10  C          22.6972   32.3172   58.6060 C.ar      1 MOL1        0.0000
     11  C          21.6398   32.2993   57.6938 C.ar      1 MOL1        0.0000
     12  C          20.2464   31.8624   58.1398 C.3       1 MOL1        0.0000
     13  N          19.9426   30.4543   57.8241 N.am      1 MOL1        0.0000
     14  N          19.4473   30.2067   56.5407 N.2       1 MOL1        0.0000
     15  C          19.1631   29.0149   56.1226 C.2       1 MOL1        0.0000
     16  C          19.4188   27.9275   57.0571 C.2       1 MOL1        0.0000
     17  C          19.9112   28.1569   58.2948 C.2       1 MOL1        0.0000
     18  C          20.2164   29.4915   58.7783 C.2       1 MOL1        0.0000
     19  O          20.6462   29.6922   59.9173 O.2       1 MOL1        0.0000
     20  C          18.5969   28.7490   54.7747 C.ar      1 MOL1        0.0000
     21  C          18.6632   29.7346   53.7733 C.ar      1 MOL1        0.0000
     22  C          18.1274   29.5090   52.5051 C.ar      1 MOL1        0.0000
     23  F          18.1820   30.4830   51.5669 F         1 MOL1        0.0000
     24  C          17.5325   28.2870   52.2075 C.ar      1 MOL1        0.0000
     25  C          17.4615   27.2957   53.1803 C.ar      1 MOL1        0.0000
     26  F          16.8723   26.1122   52.8989 F         1 MOL1        0.0000
     27  C          17.9871   27.5251   54.4501 C.ar      1 MOL1        0.0000
     28  C          21.8673   32.7053   56.3737 C.ar      1 MOL1        0.0000
     29  H          25.8043   33.3794   49.6188 H         1 MOL1        0.0000
     30  H          24.0682   33.2847   49.9236 H         1 MOL1        0.0000
     31  H          25.1529   32.0538   50.5802 H         1 MOL1        0.0000
     32  H          26.2436   33.7973   52.0292 H         1 MOL1        0.0000
     33  H          25.1414   35.0188   51.4060 H         1 MOL1        0.0000
     34  H          22.5298   33.0978   53.9939 H         1 MOL1        0.0000
     35  H          25.1966   33.4091   56.6086 H         1 MOL1        0.0000
     36  H          24.7839   32.7419   58.9129 H         1 MOL1        0.0000
     37  H          22.5404   31.9926   59.6252 H         1 MOL1        0.0000
     38  H          20.1165   32.0758   59.2041 H         1 MOL1        0.0000
     39  H          19.5061   32.5002   57.6515 H         1 MOL1        0.0000
     40  H          19.2516   26.8958   56.7834 H         1 MOL1        0.0000
     41  H          20.1112   27.3275   58.9566 H         1 MOL1        0.0000
     42  H          19.1246   30.6921   53.9680 H         1 MOL1        0.0000
     43  H          17.1261   28.1055   51.2211 H         1 MOL1        0.0000
     44  H          17.8873   26.7273   55.1702 H         1 MOL1        0.0000
     45  H          21.0500   32.6764   55.6678 H         1 MOL1        0.0000
@<TRIPOS>BOND
     1      1      2 1 
     2      2      3 1 
     3      3      4 1 
     4      4      5 2 
     5      4      6 am
     6      6      7 1 
     7      7      8 ar
     8      7     28 ar
     9      8      9 ar
    10      9     10 ar
    11     10     11 ar
    12     11     12 1 
    13     11     28 ar
    14     12     13 1 
    15     13     14 1 
    16     13     18 am
    17     14     15 2 
    18     15     16 1 
    19     15     20 1 
    20     16     17 2 
    21     17     18 1 
    22     18     19 2 
    23     20     21 ar
    24     20     27 ar
    25     21     22 ar
    26     22     23 1 
    27     22     24 ar
    28     24     25 ar
    29     25     26 1 
    30     25     27 ar
    31      1     29 1 
    32      1     30 1 
    33      1     31 1 
    34      2     32 1 
    35      2     33 1 
    36      6     34 1 
    37      8     35 1 
    38      9     36 1 
    39     10     37 1 
    40     12     38 1 
    41     12     39 1 
    42     16     40 1 
    43     17     41 1 
    44     21     42 1 
    45     24     43 1 
    46     27     44 1 
    47     28     45 1 
@<TRIPOS>SUBSTRUCTURE
     1 MOL1         1 MOLECULE 1 A  MOL 
# Molecule written by the XED library from Cresset
