@<TRIPOS>MOLECULE
CHEMBL3402750_400
    43     46      1
SMALL
USER_CHARGES
@<TRIPOS>ATOM
      1  C          23.7416   33.4339   50.5656 C.3       1 MOL1        0.0000
      2  C          23.9419   33.5262   52.0577 C.ar      1 MOL1        0.0000
      3  C          25.0472   33.9262   52.8109 C.ar      1 MOL1        0.0000
      4  N          24.9413   33.8882   54.1251 N.ar      1 MOL1        0.0000
      5  C          23.7703   33.4371   54.5091 C.ar      1 MOL1        0.0000
      6  S          22.6918   33.0941   53.1909 S.3       1 MOL1        0.0000
      7  C          23.3991   33.1258   55.9323 C.ar      1 MOL1        0.0000
      8  C          24.3940   33.1223   56.9191 C.ar      1 MOL1        0.0000
      9  C          24.1066   32.7375   58.2267 C.ar      1 MOL1        0.0000
     10  C          22.8110   32.3634   58.5715 C.ar      1 MOL1        0.0000
     11  C          21.7948   32.3802   57.6162 C.ar      1 MOL1        0.0000
     12  C          20.3655   32.0248   58.0262 C.3       1 MOL1        0.0000
     13  N          20.0019   30.6204   57.7683 N.am      1 MOL1        0.0000
     14  N          19.4474   30.3566   56.5137 N.2       1 MOL1        0.0000
     15  C          19.0638   29.1726   56.1515 C.2       1 MOL1        0.0000
     16  C          19.2956   28.1043   57.1128 C.2       1 MOL1        0.0000
     17  C          19.8470   28.3480   58.3259 C.2       1 MOL1        0.0000
     18  C          20.2312   29.6832   58.7547 C.2       1 MOL1        0.0000
     19  O          20.6849   29.9063   59.8819 O.2       1 MOL1        0.0000
     20  C          18.4132   28.9105   54.8423 C.ar      1 MOL1        0.0000
     21  C          17.9351   29.9898   54.0754 C.ar      1 MOL1        0.0000
     22  C          17.2559   29.7777   52.8782 C.ar      1 MOL1        0.0000
     23  F          16.7949   30.8353   52.1707 F         1 MOL1        0.0000
     24  C          17.0400   28.4827   52.4202 C.ar      1 MOL1        0.0000
     25  C          17.5120   27.4001   53.1582 C.ar      1 MOL1        0.0000
     26  F          17.2881   26.1399   52.7214 F         1 MOL1        0.0000
     27  C          18.2026   27.6096   54.3522 C.ar      1 MOL1        0.0000
     28  C          22.0909   32.7664   56.3023 C.ar      1 MOL1        0.0000
     29  H          23.6844   32.3960   50.2370 H         1 MOL1        0.0000
     30  H          24.5565   33.9022   50.0124 H         1 MOL1        0.0000
     31  H          22.8173   33.9215   50.2539 H         1 MOL1        0.0000
     32  H          25.9799   34.2599   52.3772 H         1 MOL1        0.0000
     33  H          25.4112   33.3943   56.6782 H         1 MOL1        0.0000
     34  H          24.8920   32.7270   58.9682 H         1 MOL1        0.0000
     35  H          22.5972   32.0573   59.5827 H         1 MOL1        0.0000
     36  H          20.2132   32.2909   59.0739 H         1 MOL1        0.0000
     37  H          19.6776   32.6821   57.4901 H         1 MOL1        0.0000
     38  H          19.0342   27.0804   56.8932 H         1 MOL1        0.0000
     39  H          20.0092   27.5307   59.0138 H         1 MOL1        0.0000
     40  H          18.0667   31.0101   54.4070 H         1 MOL1        0.0000
     41  H          16.4995   28.3179   51.4996 H         1 MOL1        0.0000
     42  H          18.5540   26.7358   54.8749 H         1 MOL1        0.0000
     43  H          21.2972   32.7657   55.5704 H         1 MOL1        0.0000
@<TRIPOS>BOND
     1      1      2 1 
     2      2      3 ar
     3      2      6 ar
     4      3      4 ar
     5      4      5 ar
     6      5      6 ar
     7      5      7 1 
     8      7      8 ar
     9      7     28 ar
    10      8      9 ar
    11      9     10 ar
    12     10     11 ar
    13     11     12 1 
    14     11     28 ar
    15     12     13 1 
    16     13     14 1 
    17     13     18 am
    18     14     15 2 
    19     15     16 1 
    20     15     20 1 
    21     16     17 2 
    22     17     18 1 
    23     18     19 2 
    24     20     21 ar
    25     20     27 ar
    26     21     22 ar
    27     22     23 1 
    28     22     24 ar
    29     24     25 ar
    30     25     26 1 
    31     25     27 ar
    32      1     29 1 
    33      1     30 1 
    34      1     31 1 
    35      3     32 1 
    36      8     33 1 
    37      9     34 1 
    38     10     35 1 
    39     12     36 1 
    40     12     37 1 
    41     16     38 1 
    42     17     39 1 
    43     21     40 1 
    44     24     41 1 
    45     27     42 1 
    46     28     43 1 
@<TRIPOS>SUBSTRUCTURE
     1 MOL1         1 MOLECULE 1 A  MOL 
# Molecule written by the XED library from Cresset
