@<TRIPOS>MOLECULE
CHEMBL3402747_3400
    42     45      1
SMALL
USER_CHARGES
@<TRIPOS>ATOM
      1  C          25.5431   34.0167   52.0099 C.3       1 MOL1        0.0000
      2  C          24.4529   33.6951   52.9986 C.ar      1 MOL1        0.0000
      3  N          23.2283   33.4386   52.6013 N.ar      1 MOL1        0.0000
      4  O          22.5648   33.1682   53.7948 O.3       1 MOL1        0.0000
      5  C          23.5069   33.3110   54.7624 C.ar      1 MOL1        0.0000
      6  N          24.6793   33.6555   54.2948 N.ar      1 MOL1        0.0000
      7  C          23.1484   32.9710   56.1722 C.ar      1 MOL1        0.0000
      8  C          24.1344   32.9719   57.1665 C.ar      1 MOL1        0.0000
      9  C          23.8296   32.5724   58.4640 C.ar      1 MOL1        0.0000
     10  C          22.5336   32.1634   58.7765 C.ar      1 MOL1        0.0000
     11  C          21.5356   32.1524   57.8009 C.ar      1 MOL1        0.0000
     12  C          20.1190   31.7033   58.1537 C.3       1 MOL1        0.0000
     13  N          19.8547   30.2890   57.8266 N.am      1 MOL1        0.0000
     14  N          19.3939   30.0363   56.5266 N.2       1 MOL1        0.0000
     15  C          19.1443   28.8364   56.1040 C.2       1 MOL1        0.0000
     16  C          19.3793   27.7544   57.0439 C.2       1 MOL1        0.0000
     17  C          19.8517   27.9868   58.2887 C.2       1 MOL1        0.0000
     18  C          20.1318   29.3242   58.7773 C.2       1 MOL1        0.0000
     19  O          20.5581   29.5291   59.9176 O.2       1 MOL1        0.0000
     20  C          18.6469   28.5427   54.7422 C.ar      1 MOL1        0.0000
     21  C          18.9989   29.3821   53.6736 C.ar      1 MOL1        0.0000
     22  C          18.5680   29.1037   52.3782 C.ar      1 MOL1        0.0000
     23  F          18.9207   29.9232   51.3580 F         1 MOL1        0.0000
     24  C          17.7745   27.9883   52.1293 C.ar      1 MOL1        0.0000
     25  C          17.4160   27.1433   53.1780 C.ar      1 MOL1        0.0000
     26  F          16.6527   26.0569   52.9396 F         1 MOL1        0.0000
     27  C          17.8499   27.4178   54.4732 C.ar      1 MOL1        0.0000
     28  C          21.8443   32.5788   56.5052 C.ar      1 MOL1        0.0000
     29  H          25.3046   34.9123   51.4367 H         1 MOL1        0.0000
     30  H          25.6690   33.2106   51.2865 H         1 MOL1        0.0000
     31  H          26.5130   34.1784   52.4818 H         1 MOL1        0.0000
     32  H          25.1478   33.2695   56.9375 H         1 MOL1        0.0000
     33  H          24.5978   32.5697   59.2236 H         1 MOL1        0.0000
     34  H          22.3124   31.8481   59.7865 H         1 MOL1        0.0000
     35  H          19.9234   31.9198   59.2077 H         1 MOL1        0.0000
     36  H          19.3994   32.3301   57.6206 H         1 MOL1        0.0000
     37  H          19.2155   26.7259   56.7598 H         1 MOL1        0.0000
     38  H          20.0350   27.1557   58.9509 H         1 MOL1        0.0000
     39  H          19.6206   30.2537   53.8274 H         1 MOL1        0.0000
     40  H          17.4481   27.7728   51.1249 H         1 MOL1        0.0000
     41  H          17.5620   26.7298   55.2564 H         1 MOL1        0.0000
     42  H          21.0727   32.5628   55.7483 H         1 MOL1        0.0000
@<TRIPOS>BOND
     1      1      2 1 
     2      2      3 ar
     3      2      6 ar
     4      3      4 ar
     5      4      5 ar
     6      5      6 ar
     7      5      7 1 
     8      7      8 ar
     9      7     28 ar
    10      8      9 ar
    11      9     10 ar
    12     10     11 ar
    13     11     12 1 
    14     11     28 ar
    15     12     13 1 
    16     13     14 1 
    17     13     18 am
    18     14     15 2 
    19     15     16 1 
    20     15     20 1 
    21     16     17 2 
    22     17     18 1 
    23     18     19 2 
    24     20     21 ar
    25     20     27 ar
    26     21     22 ar
    27     22     23 1 
    28     22     24 ar
    29     24     25 ar
    30     25     26 1 
    31     25     27 ar
    32      1     29 1 
    33      1     30 1 
    34      1     31 1 
    35      8     32 1 
    36      9     33 1 
    37     10     34 1 
    38     12     35 1 
    39     12     36 1 
    40     16     37 1 
    41     17     38 1 
    42     21     39 1 
    43     24     40 1 
    44     27     41 1 
    45     28     42 1 
@<TRIPOS>SUBSTRUCTURE
     1 MOL1         1 MOLECULE 1 A  MOL 
# Molecule written by the XED library from Cresset
