@<TRIPOS>MOLECULE
CHEMBL3402753_200
    46     49      1
SMALL
USER_CHARGES
@<TRIPOS>ATOM
      1  C          24.6440   33.7566   50.5299 C.3       1 MOL1        0.0000
      2  C          24.1955   33.6079   51.9712 C.ar      1 MOL1        0.0000
      3  C          22.9269   33.1279   52.2874 C.ar      1 MOL1        0.0000
      4  C          22.5559   32.9819   53.6250 C.ar      1 MOL1        0.0000
      5  C          23.4682   33.3170   54.6402 C.ar      1 MOL1        0.0000
      6  N          24.7033   33.8055   54.3290 N.ar      1 MOL1        0.0000
      7  C          25.0501   33.9349   53.0238 C.ar      1 MOL1        0.0000
      8  C          23.1953   33.0558   56.0977 C.ar      1 MOL1        0.0000
      9  C          24.2278   33.1076   57.0532 C.ar      1 MOL1        0.0000
     10  C          24.0151   32.7150   58.3740 C.ar      1 MOL1        0.0000
     11  C          22.7600   32.2678   58.7755 C.ar      1 MOL1        0.0000
     12  C          21.7005   32.2521   57.8672 C.ar      1 MOL1        0.0000
     13  C          20.3106   31.8110   58.3229 C.3       1 MOL1        0.0000
     14  N          19.9717   30.4315   57.9305 N.am      1 MOL1        0.0000
     15  N          19.4379   30.2705   56.6488 N.2       1 MOL1        0.0000
     16  C          19.0713   29.1173   56.1871 C.2       1 MOL1        0.0000
     17  C          19.3100   27.9722   57.0534 C.2       1 MOL1        0.0000
     18  C          19.8477   28.1160   58.2858 C.2       1 MOL1        0.0000
     19  C          20.2087   29.4111   58.8309 C.2       1 MOL1        0.0000
     20  O          20.6466   29.5360   59.9757 O.2       1 MOL1        0.0000
     21  C          18.4362   28.9570   54.8556 C.ar      1 MOL1        0.0000
     22  C          17.9522   30.0911   54.1748 C.ar      1 MOL1        0.0000
     23  C          17.2982   29.9692   52.9506 C.ar      1 MOL1        0.0000
     24  F          16.8364   31.0762   52.3231 F         1 MOL1        0.0000
     25  C          17.1097   28.7125   52.3844 C.ar      1 MOL1        0.0000
     26  C          17.5833   27.5775   53.0396 C.ar      1 MOL1        0.0000
     27  F          17.3892   26.3557   52.4989 F         1 MOL1        0.0000
     28  C          18.2471   27.6988   54.2596 C.ar      1 MOL1        0.0000
     29  C          21.9191   32.6673   56.5497 C.ar      1 MOL1        0.0000
     30  H          25.1758   32.8594   50.2079 H         1 MOL1        0.0000
     31  H          25.3161   34.6083   50.4144 H         1 MOL1        0.0000
     32  H          23.7921   33.9111   49.8659 H         1 MOL1        0.0000
     33  H          22.2301   32.8651   51.5047 H         1 MOL1        0.0000
     34  H          21.5777   32.5756   53.8359 H         1 MOL1        0.0000
     35  H          26.0426   34.3121   52.8220 H         1 MOL1        0.0000
     36  H          25.2268   33.4061   56.7732 H         1 MOL1        0.0000
     37  H          24.8331   32.7337   59.0783 H         1 MOL1        0.0000
     38  H          22.6120   31.9260   59.7898 H         1 MOL1        0.0000
     39  H          20.2103   31.9631   59.4002 H         1 MOL1        0.0000
     40  H          19.5697   32.4933   57.8958 H         1 MOL1        0.0000
     41  H          19.0659   26.9644   56.7514 H         1 MOL1        0.0000
     42  H          20.0179   27.2423   58.8982 H         1 MOL1        0.0000
     43  H          18.0622   31.0791   54.5955 H         1 MOL1        0.0000
     44  H          16.5959   28.6119   51.4403 H         1 MOL1        0.0000
     45  H          18.5991   26.7871   54.7204 H         1 MOL1        0.0000
     46  H          21.0819   32.6371   55.8707 H         1 MOL1        0.0000
@<TRIPOS>BOND
     1      1      2 1 
     2      2      3 ar
     3      2      7 ar
     4      3      4 ar
     5      4      5 ar
     6      5      6 ar
     7      5      8 1 
     8      6      7 ar
     9      8      9 ar
    10      8     29 ar
    11      9     10 ar
    12     10     11 ar
    13     11     12 ar
    14     12     13 1 
    15     12     29 ar
    16     13     14 1 
    17     14     15 1 
    18     14     19 am
    19     15     16 2 
    20     16     17 1 
    21     16     21 1 
    22     17     18 2 
    23     18     19 1 
    24     19     20 2 
    25     21     22 ar
    26     21     28 ar
    27     22     23 ar
    28     23     24 1 
    29     23     25 ar
    30     25     26 ar
    31     26     27 1 
    32     26     28 ar
    33      1     30 1 
    34      1     31 1 
    35      1     32 1 
    36      3     33 1 
    37      4     34 1 
    38      7     35 1 
    39      9     36 1 
    40     10     37 1 
    41     11     38 1 
    42     13     39 1 
    43     13     40 1 
    44     17     41 1 
    45     18     42 1 
    46     22     43 1 
    47     25     44 1 
    48     28     45 1 
    49     29     46 1 
@<TRIPOS>SUBSTRUCTURE
     1 MOL1         1 MOLECULE 1 A  MOL 
# Molecule written by the XED library from Cresset
