@<TRIPOS>MOLECULE
CHEMBL3402759_5.7
    65     68      1
SMALL
USER_CHARGES
@<TRIPOS>ATOM
      1  C          15.8252   31.3725   51.3891 C.3       1 MOL1        0.0000
      2  O          16.6336   31.3985   52.5609 O.3       1 MOL1        0.0000
      3  C          17.1600   30.2110   53.0332 C.ar      1 MOL1        0.0000
      4  C          17.0411   28.9713   52.3865 C.ar      1 MOL1        0.0000
      5  C          17.5894   27.8236   52.9554 C.ar      1 MOL1        0.0000
      6  C          18.2507   27.8961   54.1798 C.ar      1 MOL1        0.0000
      7  C          18.3948   29.1224   54.8472 C.ar      1 MOL1        0.0000
      8  C          17.8475   30.2695   54.2458 C.ar      1 MOL1        0.0000
      9  C          19.0486   29.2328   56.1755 C.2       1 MOL1        0.0000
     10  N          19.4293   30.3667   56.6722 N.2       1 MOL1        0.0000
     11  N          19.9686   30.4824   57.9555 N.am      1 MOL1        0.0000
     12  C          20.3331   31.8461   58.3786 C.3       1 MOL1        0.0000
     13  C          21.7206   32.2720   57.9089 C.ar      1 MOL1        0.0000
     14  C          22.7963   32.2649   58.7942 C.ar      1 MOL1        0.0000
     15  C          24.0522   32.6951   58.3785 C.ar      1 MOL1        0.0000
     16  C          24.2472   33.0977   57.0600 C.ar      1 MOL1        0.0000
     17  C          23.1958   33.0793   56.1281 C.ar      1 MOL1        0.0000
     18  C          21.9239   32.6937   56.5928 C.ar      1 MOL1        0.0000
     19  C          23.4330   33.3796   54.6769 C.ar      1 MOL1        0.0000
     20  N          24.6802   33.7794   54.2962 N.ar      1 MOL1        0.0000
     21  C          24.9031   33.9133   52.9625 C.ar      1 MOL1        0.0000
     22  C          23.9128   33.6533   51.9985 C.ar      1 MOL1        0.0000
     23  O          24.0590   33.7624   50.6310 O.3       1 MOL1        0.0000
     24  C          25.3682   33.8936   50.0961 C.3       1 MOL1        0.0000
     25  C          25.2906   34.1837   48.5896 C.3       1 MOL1        0.0000
     26  C          24.4426   33.2044   47.7586 C.3       1 MOL1        0.0000
     27  N          25.0473   31.7801   47.8070 N.4       1 MOL1        0.0000
     28  C          24.2954   30.8488   48.7809 C.3       1 MOL1        0.0000
     29  C          25.1638   31.1328   46.4103 C.3       1 MOL1        0.0000
     30  C          22.6661   33.2759   52.4938 C.ar      1 MOL1        0.0000
     31  N          22.4069   33.1346   53.8163 N.ar      1 MOL1        0.0000
     32  C          20.2003   29.4356   58.8239 C.2       1 MOL1        0.0000
     33  O          20.6470   29.5261   59.9699 O.2       1 MOL1        0.0000
     34  C          19.8279   28.1599   58.2374 C.2       1 MOL1        0.0000
     35  C          19.2824   28.0585   57.0032 C.2       1 MOL1        0.0000
     36  H          15.4607   32.3773   51.1753 H         1 MOL1        0.0000
     37  H          14.9536   30.7288   51.5196 H         1 MOL1        0.0000
     38  H          16.3925   31.0382   50.5195 H         1 MOL1        0.0000
     39  H          16.5238   28.8765   51.4445 H         1 MOL1        0.0000
     40  H          17.5001   26.8726   52.4500 H         1 MOL1        0.0000
     41  H          18.6505   26.9777   54.5828 H         1 MOL1        0.0000
     42  H          17.9226   31.2309   54.7333 H         1 MOL1        0.0000
     43  H          20.2542   31.9744   59.4612 H         1 MOL1        0.0000
     44  H          19.5997   32.5483   57.9772 H         1 MOL1        0.0000
     45  H          22.6550   31.9262   59.8103 H         1 MOL1        0.0000
     46  H          24.8822   32.7074   59.0703 H         1 MOL1        0.0000
     47  H          25.2435   33.3963   56.7680 H         1 MOL1        0.0000
     48  H          21.0817   32.6749   55.9159 H         1 MOL1        0.0000
     49  H          25.9011   34.2229   52.6925 H         1 MOL1        0.0000
     50  H          25.9545   32.9947   50.2961 H         1 MOL1        0.0000
     51  H          25.8725   34.7261   50.5758 H         1 MOL1        0.0000
     52  H          26.3021   34.2342   48.1833 H         1 MOL1        0.0000
     53  H          24.8764   35.1844   48.4581 H         1 MOL1        0.0000
     54  H          24.4351   33.5175   46.7129 H         1 MOL1        0.0000
     55  H          23.4051   33.1450   48.0939 H         1 MOL1        0.0000
     56  H          24.3216   31.2958   49.7746 H         1 MOL1        0.0000
     57  H          24.8287   29.9003   48.7760 H         1 MOL1        0.0000
     58  H          23.2708   30.7319   48.4224 H         1 MOL1        0.0000
     59  H          25.7776   31.7918   45.7935 H         1 MOL1        0.0000
     60  H          24.1577   31.0240   46.0012 H         1 MOL1        0.0000
     61  H          25.6512   30.1646   46.5354 H         1 MOL1        0.0000
     62  H          21.8477   33.0829   51.8173 H         1 MOL1        0.0000
     63  H          19.9866   27.2680   58.8255 H         1 MOL1        0.0000
     64  H          19.0200   27.0669   56.6661 H         1 MOL1        0.0000
     65  H          25.9970   31.8662   48.1636 H         1 MOL1        0.0000
@<TRIPOS>BOND
     1      1      2 1 
     2      2      3 1 
     3      3      4 ar
     4      3      8 ar
     5      4      5 ar
     6      5      6 ar
     7      6      7 ar
     8      7      8 ar
     9      7      9 1 
    10      9     10 2 
    11      9     35 1 
    12     10     11 1 
    13     11     12 1 
    14     11     32 am
    15     12     13 1 
    16     13     14 ar
    17     13     18 ar
    18     14     15 ar
    19     15     16 ar
    20     16     17 ar
    21     17     18 ar
    22     17     19 1 
    23     19     20 ar
    24     19     31 ar
    25     20     21 ar
    26     21     22 ar
    27     22     23 1 
    28     22     30 ar
    29     23     24 1 
    30     24     25 1 
    31     25     26 1 
    32     26     27 1 
    33     27     28 1 
    34     27     29 1 
    35     30     31 ar
    36     32     33 2 
    37     32     34 1 
    38     34     35 2 
    39      1     36 1 
    40      1     37 1 
    41      1     38 1 
    42      4     39 1 
    43      5     40 1 
    44      6     41 1 
    45      8     42 1 
    46     12     43 1 
    47     12     44 1 
    48     14     45 1 
    49     15     46 1 
    50     16     47 1 
    51     18     48 1 
    52     21     49 1 
    53     24     50 1 
    54     24     51 1 
    55     25     52 1 
    56     25     53 1 
    57     26     54 1 
    58     26     55 1 
    59     27     65 1 
    60     28     56 1 
    61     28     57 1 
    62     28     58 1 
    63     29     59 1 
    64     29     60 1 
    65     29     61 1 
    66     30     62 1 
    67     34     63 1 
    68     35     64 1 
@<TRIPOS>SUBSTRUCTURE
     1 MOL1         1 MOLECULE 1 A  MOL 
# Molecule written by the XED library from Cresset
