@<TRIPOS>MOLECULE
CHEMBL3402752_30000
    43     46      1
SMALL
USER_CHARGES
@<TRIPOS>ATOM
      1  C          25.8234   33.9368   52.0874 C.3       1 MOL1        0.0000
      2  C          24.5773   33.5529   52.8371 C.ar      1 MOL1        0.0000
      3  N          24.5033   33.5215   54.1481 N.ar      1 MOL1        0.0000
      4  C          23.3141   33.1507   54.6047 C.ar      1 MOL1        0.0000
      5  C          22.3783   32.9204   53.5909 C.ar      1 MOL1        0.0000
      6  S          23.1081   33.1260   52.0358 S.3       1 MOL1        0.0000
      7  C          23.0782   32.9428   56.0753 C.ar      1 MOL1        0.0000
      8  C          24.1214   33.0156   57.0120 C.ar      1 MOL1        0.0000
      9  C          23.9060   32.6758   58.3464 C.ar      1 MOL1        0.0000
     10  C          22.6470   32.2458   58.7660 C.ar      1 MOL1        0.0000
     11  C          21.5865   32.1977   57.8576 C.ar      1 MOL1        0.0000
     12  C          20.1983   31.7432   58.2997 C.3       1 MOL1        0.0000
     13  N          19.9102   30.3472   57.9267 N.am      1 MOL1        0.0000
     14  N          19.4457   30.1367   56.6241 N.2       1 MOL1        0.0000
     15  C          19.1955   28.9527   56.1602 C.2       1 MOL1        0.0000
     16  C          19.4462   27.8387   57.0634 C.2       1 MOL1        0.0000
     17  C          19.9156   28.0338   58.3163 C.2       1 MOL1        0.0000
     18  C          20.1990   29.3563   58.8423 C.2       1 MOL1        0.0000
     19  O          20.6466   29.5307   59.9757 O.2       1 MOL1        0.0000
     20  C          18.6782   28.7120   54.7929 C.ar      1 MOL1        0.0000
     21  C          18.8686   29.6755   53.7873 C.ar      1 MOL1        0.0000
     22  C          18.4018   29.4581   52.4919 C.ar      1 MOL1        0.0000
     23  F          18.5947   30.3979   51.5403 F         1 MOL1        0.0000
     24  C          17.7355   28.2754   52.1779 C.ar      1 MOL1        0.0000
     25  C          17.5376   27.3094   53.1591 C.ar      1 MOL1        0.0000
     26  F          16.8840   26.1648   52.8599 F         1 MOL1        0.0000
     27  C          18.0078   27.5260   54.4534 C.ar      1 MOL1        0.0000
     28  C          21.8052   32.5682   56.5284 C.ar      1 MOL1        0.0000
     29  H          25.6127   34.7585   51.4074 H         1 MOL1        0.0000
     30  H          26.1895   33.1263   51.4574 H         1 MOL1        0.0000
     31  H          26.6381   34.2399   52.7439 H         1 MOL1        0.0000
     32  H          21.3476   32.6089   53.6669 H         1 MOL1        0.0000
     33  H          25.1167   33.3023   56.7016 H         1 MOL1        0.0000
     34  H          24.7283   32.7185   59.0467 H         1 MOL1        0.0000
     35  H          22.4998   31.9283   59.7886 H         1 MOL1        0.0000
     36  H          20.0766   31.9170   59.3695 H         1 MOL1        0.0000
     37  H          19.4477   32.3927   57.8405 H         1 MOL1        0.0000
     38  H          19.2890   26.8170   56.7517 H         1 MOL1        0.0000
     39  H          20.1073   27.1837   58.9532 H         1 MOL1        0.0000
     40  H          19.3903   30.5998   53.9954 H         1 MOL1        0.0000
     41  H          17.3745   28.1070   51.1755 H         1 MOL1        0.0000
     42  H          17.8281   26.7513   55.1826 H         1 MOL1        0.0000
     43  H          20.9769   32.5013   55.8382 H         1 MOL1        0.0000
@<TRIPOS>BOND
     1      1      2 1 
     2      2      3 ar
     3      2      6 ar
     4      3      4 ar
     5      4      5 ar
     6      4      7 1 
     7      5      6 ar
     8      7      8 ar
     9      7     28 ar
    10      8      9 ar
    11      9     10 ar
    12     10     11 ar
    13     11     12 1 
    14     11     28 ar
    15     12     13 1 
    16     13     14 1 
    17     13     18 am
    18     14     15 2 
    19     15     16 1 
    20     15     20 1 
    21     16     17 2 
    22     17     18 1 
    23     18     19 2 
    24     20     21 ar
    25     20     27 ar
    26     21     22 ar
    27     22     23 1 
    28     22     24 ar
    29     24     25 ar
    30     25     26 1 
    31     25     27 ar
    32      1     29 1 
    33      1     30 1 
    34      1     31 1 
    35      5     32 1 
    36      8     33 1 
    37      9     34 1 
    38     10     35 1 
    39     12     36 1 
    40     12     37 1 
    41     16     38 1 
    42     17     39 1 
    43     21     40 1 
    44     24     41 1 
    45     27     42 1 
    46     28     43 1 
@<TRIPOS>SUBSTRUCTURE
     1 MOL1         1 MOLECULE 1 A  MOL 
# Molecule written by the XED library from Cresset
