@<TRIPOS>MOLECULE
CHEMBL3402755_4200
    45     48      1
SMALL
USER_CHARGES
@<TRIPOS>ATOM
      1  C          24.9268   34.0387   50.7958 C.3       1 MOL1        0.0000
      2  C          24.3292   33.7968   52.1682 C.ar      1 MOL1        0.0000
      3  C          23.0499   33.2693   52.3344 C.ar      1 MOL1        0.0000
      4  C          22.6036   33.0410   53.6347 C.ar      1 MOL1        0.0000
      5  C          23.4538   33.3556   54.7057 C.ar      1 MOL1        0.0000
      6  N          24.6754   33.9192   54.4700 N.ar      1 MOL1        0.0000
      7  N          25.1181   34.1276   53.2212 N.ar      1 MOL1        0.0000
      8  C          23.1239   33.0265   56.1337 C.ar      1 MOL1        0.0000
      9  C          24.1214   33.0302   57.1236 C.ar      1 MOL1        0.0000
     10  C          23.8473   32.6424   58.4326 C.ar      1 MOL1        0.0000
     11  C          22.5704   32.2174   58.7761 C.ar      1 MOL1        0.0000
     12  C          21.5526   32.2075   57.8229 C.ar      1 MOL1        0.0000
     13  C          20.1497   31.7465   58.2043 C.3       1 MOL1        0.0000
     14  N          19.8854   30.3397   57.8544 N.am      1 MOL1        0.0000
     15  N          19.4128   30.1090   56.5605 N.2       1 MOL1        0.0000
     16  C          19.1571   28.9176   56.1180 C.2       1 MOL1        0.0000
     17  C          19.4059   27.8195   57.0375 C.2       1 MOL1        0.0000
     18  C          19.8870   28.0345   58.2822 C.2       1 MOL1        0.0000
     19  C          20.1852   29.3636   58.7850 C.2       1 MOL1        0.0000
     20  O          20.6460   29.5449   59.9142 O.2       1 MOL1        0.0000
     21  C          18.6463   28.6600   54.7513 C.ar      1 MOL1        0.0000
     22  C          17.9441   27.4851   54.4303 C.ar      1 MOL1        0.0000
     23  C          17.4733   27.2606   53.1364 C.ar      1 MOL1        0.0000
     24  F          16.7942   26.1288   52.8531 F         1 MOL1        0.0000
     25  C          17.7086   28.2024   52.1378 C.ar      1 MOL1        0.0000
     26  C          18.4025   29.3727   52.4339 C.ar      1 MOL1        0.0000
     27  F          18.6243   30.2907   51.4676 F         1 MOL1        0.0000
     28  C          18.8686   29.6005   53.7292 C.ar      1 MOL1        0.0000
     29  C          21.8292   32.6350   56.5192 C.ar      1 MOL1        0.0000
     30  H          25.0400   35.1100   50.6219 H         1 MOL1        0.0000
     31  H          24.2962   33.6273   50.0037 H         1 MOL1        0.0000
     32  H          25.9117   33.5709   50.7171 H         1 MOL1        0.0000
     33  H          22.4207   33.0324   51.4858 H         1 MOL1        0.0000
     34  H          21.6343   32.5922   53.7757 H         1 MOL1        0.0000
     35  H          25.1348   33.3176   56.8881 H         1 MOL1        0.0000
     36  H          24.6327   32.6582   59.1741 H         1 MOL1        0.0000
     37  H          22.3648   31.8897   59.7856 H         1 MOL1        0.0000
     38  H          19.9758   31.9310   59.2706 H         1 MOL1        0.0000
     39  H          19.4176   32.3850   57.7063 H         1 MOL1        0.0000
     40  H          19.2305   26.7935   56.7551 H         1 MOL1        0.0000
     41  H          20.0775   27.1977   58.9349 H         1 MOL1        0.0000
     42  H          17.7396   26.7272   55.1728 H         1 MOL1        0.0000
     43  H          17.3583   28.0202   51.1329 H         1 MOL1        0.0000
     44  H          19.4080   30.5144   53.9261 H         1 MOL1        0.0000
     45  H          21.0233   32.6247   55.8023 H         1 MOL1        0.0000
@<TRIPOS>BOND
     1      1      2 1 
     2      2      3 ar
     3      2      7 ar
     4      3      4 ar
     5      4      5 ar
     6      5      6 ar
     7      5      8 1 
     8      6      7 ar
     9      8      9 ar
    10      8     29 ar
    11      9     10 ar
    12     10     11 ar
    13     11     12 ar
    14     12     13 1 
    15     12     29 ar
    16     13     14 1 
    17     14     15 1 
    18     14     19 am
    19     15     16 2 
    20     16     17 1 
    21     16     21 1 
    22     17     18 2 
    23     18     19 1 
    24     19     20 2 
    25     21     22 ar
    26     21     28 ar
    27     22     23 ar
    28     23     24 1 
    29     23     25 ar
    30     25     26 ar
    31     26     27 1 
    32     26     28 ar
    33      1     30 1 
    34      1     31 1 
    35      1     32 1 
    36      3     33 1 
    37      4     34 1 
    38      9     35 1 
    39     10     36 1 
    40     11     37 1 
    41     13     38 1 
    42     13     39 1 
    43     17     40 1 
    44     18     41 1 
    45     22     42 1 
    46     25     43 1 
    47     28     44 1 
    48     29     45 1 
@<TRIPOS>SUBSTRUCTURE
     1 MOL1         1 MOLECULE 1 A  MOL 
# Molecule written by the XED library from Cresset
