@<TRIPOS>MOLECULE
CHEMBL3402760_1
    62     65      1
SMALL
USER_CHARGES
@<TRIPOS>ATOM
      1  C          24.5142   29.6953   47.9585 C.3       1 MOL1        0.0000
      2  N          25.0478   30.9914   47.3121 N.4       1 MOL1        0.0000
      3  C          25.0352   30.8721   45.7714 C.3       1 MOL1        0.0000
      4  C          24.2814   32.2462   47.7916 C.3       1 MOL1        0.0000
      5  C          24.6889   32.6254   49.2268 C.3       1 MOL1        0.0000
      6  C          24.0700   33.9609   49.6661 C.3       1 MOL1        0.0000
      7  O          24.6994   34.3776   50.8699 O.3       1 MOL1        0.0000
      8  C          24.2676   33.9261   52.0991 C.ar      1 MOL1        0.0000
      9  C          25.0957   34.1824   53.1917 C.ar      1 MOL1        0.0000
     10  N          24.7495   33.8877   54.4681 N.ar      1 MOL1        0.0000
     11  C          23.5277   33.3148   54.6599 C.ar      1 MOL1        0.0000
     12  N          22.6559   33.0070   53.6557 N.ar      1 MOL1        0.0000
     13  C          23.0377   33.3162   52.3872 C.ar      1 MOL1        0.0000
     14  C          23.1444   32.9496   56.0658 C.ar      1 MOL1        0.0000
     15  C          24.1013   32.9515   57.0936 C.ar      1 MOL1        0.0000
     16  C          23.7807   32.5462   58.3864 C.ar      1 MOL1        0.0000
     17  C          22.4873   32.1321   58.6834 C.ar      1 MOL1        0.0000
     18  C          21.5035   32.1395   57.6943 C.ar      1 MOL1        0.0000
     19  C          20.0756   31.7262   58.0418 C.3       1 MOL1        0.0000
     20  N          19.7787   30.3264   57.6974 N.am      1 MOL1        0.0000
     21  N          19.3220   30.1063   56.3970 N.2       1 MOL1        0.0000
     22  C          19.0578   28.9232   55.9396 C.2       1 MOL1        0.0000
     23  C          19.2639   27.8190   56.8630 C.2       1 MOL1        0.0000
     24  C          19.7247   28.0235   58.1197 C.2       1 MOL1        0.0000
     25  C          20.0267   29.3467   58.6401 C.2       1 MOL1        0.0000
     26  O          20.4528   29.5258   59.7830 O.2       1 MOL1        0.0000
     27  C          18.5859   28.6953   54.5539 C.ar      1 MOL1        0.0000
     28  C          18.8374   29.6707   53.5722 C.ar      1 MOL1        0.0000
     29  C          18.4128   29.4909   52.2572 C.ar      1 MOL1        0.0000
     30  C          17.7329   28.3325   51.8947 C.ar      1 MOL1        0.0000
     31  C          17.4785   27.3446   52.8514 C.ar      1 MOL1        0.0000
     32  C          17.9055   27.5253   54.1718 C.ar      1 MOL1        0.0000
     33  C          16.7887   26.1237   52.4583 C.1       1 MOL1        0.0000
     34  N          16.2471   25.1517   52.1432 N.1       1 MOL1        0.0000
     35  C          21.8349   32.5514   56.3972 C.ar      1 MOL1        0.0000
     36  H          25.0981   28.8539   47.5794 H         1 MOL1        0.0000
     37  H          23.4604   29.5878   47.6995 H         1 MOL1        0.0000
     38  H          24.6463   29.8069   49.0319 H         1 MOL1        0.0000
     39  H          25.6208   29.9926   45.4977 H         1 MOL1        0.0000
     40  H          25.4917   31.7762   45.3646 H         1 MOL1        0.0000
     41  H          23.9979   30.7731   45.4452 H         1 MOL1        0.0000
     42  H          23.2138   32.0440   47.6748 H         1 MOL1        0.0000
     43  H          24.5642   33.0446   47.1049 H         1 MOL1        0.0000
     44  H          25.7769   32.7183   49.2815 H         1 MOL1        0.0000
     45  H          24.4097   31.8543   49.9454 H         1 MOL1        0.0000
     46  H          22.9769   33.9265   49.7093 H         1 MOL1        0.0000
     47  H          24.3180   34.7240   48.9251 H         1 MOL1        0.0000
     48  H          26.0425   34.6825   53.0470 H         1 MOL1        0.0000
     49  H          22.2995   33.1186   51.6218 H         1 MOL1        0.0000
     50  H          25.1196   33.2487   56.8940 H         1 MOL1        0.0000
     51  H          24.5425   32.5454   59.1518 H         1 MOL1        0.0000
     52  H          22.2477   31.8032   59.6837 H         1 MOL1        0.0000
     53  H          19.3795   32.3699   57.5020 H         1 MOL1        0.0000
     54  H          19.8732   31.9406   59.0947 H         1 MOL1        0.0000
     55  H          19.0824   26.7951   56.5699 H         1 MOL1        0.0000
     56  H          19.8855   27.1800   58.7735 H         1 MOL1        0.0000
     57  H          19.3708   30.5777   53.8186 H         1 MOL1        0.0000
     58  H          18.6160   30.2516   51.5169 H         1 MOL1        0.0000
     59  H          17.4168   28.2056   50.8690 H         1 MOL1        0.0000
     60  H          17.6976   26.7470   54.8942 H         1 MOL1        0.0000
     61  H          21.0682   32.5367   55.6344 H         1 MOL1        0.0000
     62  H          26.0123   31.1088   47.6156 H         1 MOL1        0.0000
@<TRIPOS>BOND
     1      1      2 1 
     2      2      3 1 
     3      2      4 1 
     4      4      5 1 
     5      5      6 1 
     6      6      7 1 
     7      7      8 1 
     8      8      9 ar
     9      8     13 ar
    10      9     10 ar
    11     10     11 ar
    12     11     12 ar
    13     11     14 1 
    14     12     13 ar
    15     14     15 ar
    16     14     35 ar
    17     15     16 ar
    18     16     17 ar
    19     17     18 ar
    20     18     19 1 
    21     18     35 ar
    22     19     20 1 
    23     20     21 1 
    24     20     25 am
    25     21     22 2 
    26     22     23 1 
    27     22     27 1 
    28     23     24 2 
    29     24     25 1 
    30     25     26 2 
    31     27     28 ar
    32     27     32 ar
    33     28     29 ar
    34     29     30 ar
    35     30     31 ar
    36     31     32 ar
    37     31     33 1 
    38     33     34 3 
    39      1     36 1 
    40      1     37 1 
    41      1     38 1 
    42      2     62 1 
    43      3     39 1 
    44      3     40 1 
    45      3     41 1 
    46      4     42 1 
    47      4     43 1 
    48      5     44 1 
    49      5     45 1 
    50      6     46 1 
    51      6     47 1 
    52      9     48 1 
    53     13     49 1 
    54     15     50 1 
    55     16     51 1 
    56     17     52 1 
    57     19     53 1 
    58     19     54 1 
    59     23     55 1 
    60     24     56 1 
    61     28     57 1 
    62     29     58 1 
    63     30     59 1 
    64     32     60 1 
    65     35     61 1 
@<TRIPOS>SUBSTRUCTURE
     1 MOL1         1 MOLECULE 1 A  MOL 
