@<TRIPOS>MOLECULE
CHEMBL3402763_90
    63     65      1
SMALL
USER_CHARGES
@<TRIPOS>ATOM
      1  C          24.4727   31.0016   48.0036 C.3       1 MOL1        0.0000
      2  C          24.5300   32.4421   47.4625 C.3       1 MOL1        0.0000
      3  N          25.8471   33.1263   47.9174 N.4       1 MOL1        0.0000
      4  C          26.5582   33.8236   46.7267 C.3       1 MOL1        0.0000
      5  C          27.9680   34.3135   47.0983 C.3       1 MOL1        0.0000
      6  C          25.7037   34.0574   49.1505 C.3       1 MOL1        0.0000
      7  C          25.0196   33.3694   50.3406 C.3       1 MOL1        0.0000
      8  C          25.1207   34.2204   51.6096 C.3       1 MOL1        0.0000
      9  O          24.2089   33.7070   52.5694 O.3       1 MOL1        0.0000
     10  C          24.4274   33.8425   53.8818 C.2       1 MOL1        0.0000
     11  O          25.4468   34.3262   54.3758 O.2       1 MOL1        0.0000
     12  N          23.3143   33.3489   54.5431 N.am      1 MOL1        0.0000
     13  C          23.1199   33.0979   55.9090 C.ar      1 MOL1        0.0000
     14  C          24.1414   33.1258   56.8693 C.ar      1 MOL1        0.0000
     15  C          23.8696   32.7659   58.1897 C.ar      1 MOL1        0.0000
     16  C          22.5879   32.3615   58.5569 C.ar      1 MOL1        0.0000
     17  C          21.5635   32.3202   57.6077 C.ar      1 MOL1        0.0000
     18  C          20.1562   31.8850   58.0078 C.3       1 MOL1        0.0000
     19  N          19.8644   30.4717   57.6936 N.am      1 MOL1        0.0000
     20  N          19.3890   30.2278   56.4403 N.2       1 MOL1        0.0000
     21  C          19.0442   29.0918   55.9519 C.2       1 MOL1        0.0000
     22  C          19.2131   27.7463   56.6825 C.3       1 MOL1        0.0000
     23  S          19.8987   27.7561   58.3757 S.3       1 MOL1        0.0000
     24  C          20.1827   29.5317   58.6864 C.2       1 MOL1        0.0000
     25  O          20.6467   29.8222   59.7923 O.2       1 MOL1        0.0000
     26  C          18.4155   29.0391   54.5996 C.ar      1 MOL1        0.0000
     27  C          17.9456   30.2139   53.9817 C.ar      1 MOL1        0.0000
     28  C          17.3441   30.1691   52.7261 C.ar      1 MOL1        0.0000
     29  C          17.2051   28.9511   52.0696 C.ar      1 MOL1        0.0000
     30  CL         16.4736   28.8975   50.5073 Cl        1 MOL1        0.0000
     31  C          17.6526   27.7758   52.6641 C.ar      1 MOL1        0.0000
     32  C          18.2471   27.8189   53.9222 C.ar      1 MOL1        0.0000
     33  C          21.8327   32.7061   56.2913 C.ar      1 MOL1        0.0000
     34  H          23.5968   30.4811   47.6104 H         1 MOL1        0.0000
     35  H          24.4033   30.9609   49.0891 H         1 MOL1        0.0000
     36  H          25.3532   30.4260   47.7088 H         1 MOL1        0.0000
     37  H          24.5177   32.4252   46.3705 H         1 MOL1        0.0000
     38  H          23.6976   33.0693   47.7875 H         1 MOL1        0.0000
     39  H          26.6196   33.0663   45.9418 H         1 MOL1        0.0000
     40  H          25.9002   34.6318   46.3996 H         1 MOL1        0.0000
     41  H          28.5062   34.6317   46.2047 H         1 MOL1        0.0000
     42  H          28.5571   33.5279   47.5728 H         1 MOL1        0.0000
     43  H          27.9415   35.1731   47.7691 H         1 MOL1        0.0000
     44  H          26.7217   34.3261   49.4276 H         1 MOL1        0.0000
     45  H          25.1693   34.9484   48.8141 H         1 MOL1        0.0000
     46  H          23.9675   33.2044   50.1122 H         1 MOL1        0.0000
     47  H          25.4667   32.3939   50.5322 H         1 MOL1        0.0000
     48  H          26.1498   34.2162   51.9755 H         1 MOL1        0.0000
     49  H          24.8575   35.2572   51.3965 H         1 MOL1        0.0000
     50  H          22.5395   33.1075   53.9443 H         1 MOL1        0.0000
     51  H          25.1537   33.4086   56.6205 H         1 MOL1        0.0000
     52  H          24.6629   32.7886   58.9236 H         1 MOL1        0.0000
     53  H          22.3957   32.0656   59.5762 H         1 MOL1        0.0000
     54  H          19.9788   32.1176   59.0609 H         1 MOL1        0.0000
     55  H          19.4347   32.5167   57.4888 H         1 MOL1        0.0000
     56  H          18.2473   27.2434   56.7524 H         1 MOL1        0.0000
     57  H          19.8772   27.1004   56.1068 H         1 MOL1        0.0000
     58  H          18.0354   31.1729   54.4712 H         1 MOL1        0.0000
     59  H          16.9904   31.0770   52.2615 H         1 MOL1        0.0000
     60  H          17.5495   26.8304   52.1502 H         1 MOL1        0.0000
     61  H          18.5791   26.8796   54.3375 H         1 MOL1        0.0000
     62  H          21.0378   32.6610   55.5594 H         1 MOL1        0.0000
     63  H          26.4658   32.3740   48.2108 H         1 MOL1        0.0000
@<TRIPOS>BOND
     1      1      2 1 
     2      2      3 1 
     3      3      4 1 
     4      3      6 1 
     5      4      5 1 
     6      6      7 1 
     7      7      8 1 
     8      8      9 1 
     9      9     10 1 
    10     10     11 2 
    11     10     12 am
    12     12     13 1 
    13     13     14 ar
    14     13     33 ar
    15     14     15 ar
    16     15     16 ar
    17     16     17 ar
    18     17     18 1 
    19     17     33 ar
    20     18     19 1 
    21     19     20 1 
    22     19     24 am
    23     20     21 2 
    24     21     22 1 
    25     21     26 1 
    26     22     23 1 
    27     23     24 1 
    28     24     25 2 
    29     26     27 ar
    30     26     32 ar
    31     27     28 ar
    32     28     29 ar
    33     29     30 1 
    34     29     31 ar
    35     31     32 ar
    36      1     34 1 
    37      1     35 1 
    38      1     36 1 
    39      2     37 1 
    40      2     38 1 
    41      3     63 1 
    42      4     39 1 
    43      4     40 1 
    44      5     41 1 
    45      5     42 1 
    46      5     43 1 
    47      6     44 1 
    48      6     45 1 
    49      7     46 1 
    50      7     47 1 
    51      8     48 1 
    52      8     49 1 
    53     12     50 1 
    54     14     51 1 
    55     15     52 1 
    56     16     53 1 
    57     18     54 1 
    58     18     55 1 
    59     22     56 1 
    60     22     57 1 
    61     27     58 1 
    62     28     59 1 
    63     31     60 1 
    64     32     61 1 
    65     33     62 1 
@<TRIPOS>SUBSTRUCTURE
     1 MOL1         1 MOLECULE 1 A  MOL 
# Molecule written by the XED library from Cresset
