@<TRIPOS>MOLECULE
CHEMBL3402741_400
    71     73      1
SMALL
USER_CHARGES
@<TRIPOS>ATOM
      1  C          24.3934   31.0600   48.1947 C.3       1 MOL1        0.0000
      2  C          24.5318   32.4351   47.5178 C.3       1 MOL1        0.0000
      3  N          25.8474   33.1258   47.9679 N.4       1 MOL1        0.0000
      4  C          26.5614   33.7965   46.7640 C.3       1 MOL1        0.0000
      5  C          27.9647   34.3057   47.1323 C.3       1 MOL1        0.0000
      6  C          25.7058   34.0801   49.1798 C.3       1 MOL1        0.0000
      7  C          24.9918   33.4384   50.3755 C.3       1 MOL1        0.0000
      8  C          25.0659   34.3430   51.6089 C.3       1 MOL1        0.0000
      9  O          24.1175   33.9028   52.5724 O.3       1 MOL1        0.0000
     10  C          24.3859   33.9251   53.8856 C.2       1 MOL1        0.0000
     11  O          25.4468   34.3252   54.3755 O.2       1 MOL1        0.0000
     12  N          23.2712   33.4382   54.5535 N.am      1 MOL1        0.0000
     13  C          23.1060   33.1249   55.9113 C.ar      1 MOL1        0.0000
     14  C          24.1478   33.1259   56.8531 C.ar      1 MOL1        0.0000
     15  C          23.9046   32.7376   58.1696 C.ar      1 MOL1        0.0000
     16  C          22.6221   32.3505   58.5593 C.ar      1 MOL1        0.0000
     17  C          21.5763   32.3408   57.6345 C.ar      1 MOL1        0.0000
     18  C          20.1645   31.9343   58.0656 C.3       1 MOL1        0.0000
     19  N          19.8549   30.5223   57.7688 N.am      1 MOL1        0.0000
     20  N          19.5510   30.2568   56.4647 N.2       1 MOL1        0.0000
     21  C          19.2595   29.1097   55.9735 C.2       1 MOL1        0.0000
     22  C          19.1563   27.8215   56.8125 C.3       1 MOL1        0.0000
     23  S          20.1073   27.8033   58.3756 S.3       1 MOL1        0.0000
     24  C          20.2026   29.5875   58.7616 C.2       1 MOL1        0.0000
     25  O          20.6464   29.8843   59.8760 O.2       1 MOL1        0.0000
     26  C          18.9915   28.9833   54.5231 C.ar      1 MOL1        0.0000
     27  C          19.6332   29.8252   53.6061 C.ar      1 MOL1        0.0000
     28  C          19.4012   29.7031   52.2393 C.ar      1 MOL1        0.0000
     29  C          18.5163   28.7296   51.7479 C.ar      1 MOL1        0.0000
     30  O          18.2446   28.5625   50.4000 O.3       1 MOL1        0.0000
     31  C          19.1055   29.1560   49.4367 C.3       1 MOL1        0.0000
     32  C          17.8607   27.8802   52.6511 C.ar      1 MOL1        0.0000
     33  O          16.9971   26.9398   52.1194 O.3       1 MOL1        0.0000
     34  C          16.4627   25.9229   52.9608 C.3       1 MOL1        0.0000
     35  C          18.1083   28.0139   54.0302 C.ar      1 MOL1        0.0000
     36  C          21.8257   32.7275   56.3134 C.ar      1 MOL1        0.0000
     37  H          23.5731   30.4984   47.7502 H         1 MOL1        0.0000
     38  H          24.1797   31.1335   49.2598 H         1 MOL1        0.0000
     39  H          25.3026   30.4604   48.0820 H         1 MOL1        0.0000
     40  H          24.5871   32.2964   46.4354 H         1 MOL1        0.0000
     41  H          23.7064   33.1249   47.7224 H         1 MOL1        0.0000
     42  H          26.6370   33.0231   45.9988 H         1 MOL1        0.0000
     43  H          25.9021   34.5928   46.4106 H         1 MOL1        0.0000
     44  H          28.5048   34.6092   46.2369 H         1 MOL1        0.0000
     45  H          28.5529   33.5272   47.6204 H         1 MOL1        0.0000
     46  H          27.9289   35.1715   47.7906 H         1 MOL1        0.0000
     47  H          26.7289   34.3265   49.4695 H         1 MOL1        0.0000
     48  H          25.1999   34.9802   48.8207 H         1 MOL1        0.0000
     49  H          23.9440   33.2598   50.1306 H         1 MOL1        0.0000
     50  H          25.4418   32.4741   50.6173 H         1 MOL1        0.0000
     51  H          26.0877   34.3355   51.9943 H         1 MOL1        0.0000
     52  H          24.8319   35.3723   51.3382 H         1 MOL1        0.0000
     53  H          22.4685   33.2708   53.9673 H         1 MOL1        0.0000
     54  H          25.1545   33.4074   56.5882 H         1 MOL1        0.0000
     55  H          24.7114   32.7470   58.8868 H         1 MOL1        0.0000
     56  H          22.4449   32.0462   59.5784 H         1 MOL1        0.0000
     57  H          20.0051   32.1810   59.1196 H         1 MOL1        0.0000
     58  H          19.4401   32.5650   57.5477 H         1 MOL1        0.0000
     59  H          19.5363   26.9752   56.2387 H         1 MOL1        0.0000
     60  H          18.1120   27.6206   57.0577 H         1 MOL1        0.0000
     61  H          20.3227   30.5828   53.9471 H         1 MOL1        0.0000
     62  H          19.9142   30.3790   51.5732 H         1 MOL1        0.0000
     63  H          18.8121   28.8229   48.4420 H         1 MOL1        0.0000
     64  H          20.1452   28.8590   49.5904 H         1 MOL1        0.0000
     65  H          19.0323   30.2450   49.4516 H         1 MOL1        0.0000
     66  H          15.8022   26.3401   53.7205 H         1 MOL1        0.0000
     67  H          17.2616   25.3568   53.4427 H         1 MOL1        0.0000
     68  H          15.8754   25.2286   52.3598 H         1 MOL1        0.0000
     69  H          17.6031   27.3567   54.7209 H         1 MOL1        0.0000
     70  H          21.0158   32.7074   55.5984 H         1 MOL1        0.0000
     71  H          26.4632   32.3739   48.2748 H         1 MOL1        0.0000
@<TRIPOS>BOND
     1      1      2 1 
     2      2      3 1 
     3      3      4 1 
     4      3      6 1 
     5      4      5 1 
     6      6      7 1 
     7      7      8 1 
     8      8      9 1 
     9      9     10 1 
    10     10     11 2 
    11     10     12 am
    12     12     13 1 
    13     13     14 ar
    14     13     36 ar
    15     14     15 ar
    16     15     16 ar
    17     16     17 ar
    18     17     18 1 
    19     17     36 ar
    20     18     19 1 
    21     19     20 1 
    22     19     24 am
    23     20     21 2 
    24     21     22 1 
    25     21     26 1 
    26     22     23 1 
    27     23     24 1 
    28     24     25 2 
    29     26     27 ar
    30     26     35 ar
    31     27     28 ar
    32     28     29 ar
    33     29     30 1 
    34     29     32 ar
    35     30     31 1 
    36     32     33 1 
    37     32     35 ar
    38     33     34 1 
    39      1     37 1 
    40      1     38 1 
    41      1     39 1 
    42      2     40 1 
    43      2     41 1 
    44      3     71 1 
    45      4     42 1 
    46      4     43 1 
    47      5     44 1 
    48      5     45 1 
    49      5     46 1 
    50      6     47 1 
    51      6     48 1 
    52      7     49 1 
    53      7     50 1 
    54      8     51 1 
    55      8     52 1 
    56     12     53 1 
    57     14     54 1 
    58     15     55 1 
    59     16     56 1 
    60     18     57 1 
    61     18     58 1 
    62     22     59 1 
    63     22     60 1 
    64     27     61 1 
    65     28     62 1 
    66     31     63 1 
    67     31     64 1 
    68     31     65 1 
    69     34     66 1 
    70     34     67 1 
    71     34     68 1 
    72     35     69 1 
    73     36     70 1 
@<TRIPOS>SUBSTRUCTURE
     1 MOL1         1 MOLECULE 1 A  MOL 
# Molecule written by the XED library from Cresset
