@<TRIPOS>MOLECULE
CHEMBL3402744_300
    42     44      1
SMALL
USER_CHARGES
@<TRIPOS>ATOM
      1  C          25.1164   34.0885   51.5934 C.3       1 MOL1        0.0000
      2  O          24.1301   33.7369   52.5533 O.3       1 MOL1        0.0000
      3  C          24.3822   33.8574   53.8672 C.2       1 MOL1        0.0000
      4  O          25.4212   34.3253   54.3389 O.2       1 MOL1        0.0000
      5  N          23.2845   33.3698   54.5611 N.am      1 MOL1        0.0000
      6  C          23.1453   33.1032   55.9319 C.ar      1 MOL1        0.0000
      7  C          24.2134   33.1207   56.8434 C.ar      1 MOL1        0.0000
      8  C          24.0130   32.7263   58.1651 C.ar      1 MOL1        0.0000
      9  C          22.7541   32.3009   58.5857 C.ar      1 MOL1        0.0000
     10  C          21.6774   32.2902   57.6945 C.ar      1 MOL1        0.0000
     11  C          20.2905   31.8639   58.1736 C.3       1 MOL1        0.0000
     12  N          19.9601   30.4564   57.8723 N.am      1 MOL1        0.0000
     13  N          19.4739   30.2001   56.5844 N.2       1 MOL1        0.0000
     14  C          19.1911   29.0032   56.1720 C.2       1 MOL1        0.0000
     15  C          19.4025   27.9265   57.1277 C.2       1 MOL1        0.0000
     16  C          19.8697   28.1685   58.3739 C.2       1 MOL1        0.0000
     17  C          20.2016   29.5029   58.8403 C.2       1 MOL1        0.0000
     18  O          20.6427   29.7018   59.9757 O.2       1 MOL1        0.0000
     19  C          18.6876   28.7180   54.8040 C.ar      1 MOL1        0.0000
     20  C          18.8911   29.6524   53.7735 C.ar      1 MOL1        0.0000
     21  C          18.4516   29.3961   52.4744 C.ar      1 MOL1        0.0000
     22  F          18.6544   30.3132   51.5022 F         1 MOL1        0.0000
     23  C          17.8112   28.1968   52.1757 C.ar      1 MOL1        0.0000
     24  C          17.5967   27.2584   53.1819 C.ar      1 MOL1        0.0000
     25  F          16.9685   26.0957   52.8982 F         1 MOL1        0.0000
     26  C          18.0276   27.5199   54.4833 C.ar      1 MOL1        0.0000
     27  C          21.8774   32.7029   56.3720 C.ar      1 MOL1        0.0000
     28  H          24.7176   33.9666   50.5869 H         1 MOL1        0.0000
     29  H          25.9984   33.4536   51.6874 H         1 MOL1        0.0000
     30  H          25.4266   35.1259   51.7108 H         1 MOL1        0.0000
     31  H          22.4934   33.1213   53.9846 H         1 MOL1        0.0000
     32  H          25.2119   33.4073   56.5509 H         1 MOL1        0.0000
     33  H          24.8450   32.7315   58.8552 H         1 MOL1        0.0000
     34  H          22.6174   31.9774   59.6069 H         1 MOL1        0.0000
     35  H          20.1987   32.0823   59.2391 H         1 MOL1        0.0000
     36  H          19.5424   32.5107   57.7099 H         1 MOL1        0.0000
     37  H          19.2125   26.8963   56.8666 H         1 MOL1        0.0000
     38  H          20.0246   27.3442   59.0538 H         1 MOL1        0.0000
     39  H          19.4020   30.5850   53.9648 H         1 MOL1        0.0000
     40  H          17.4868   27.9916   51.1669 H         1 MOL1        0.0000
     41  H          17.8297   26.7622   55.2275 H         1 MOL1        0.0000
     42  H          21.0463   32.6822   55.6804 H         1 MOL1        0.0000
@<TRIPOS>BOND
     1      1      2 1 
     2      2      3 1 
     3      3      4 2 
     4      3      5 am
     5      5      6 1 
     6      6      7 ar
     7      6     27 ar
     8      7      8 ar
     9      8      9 ar
    10      9     10 ar
    11     10     11 1 
    12     10     27 ar
    13     11     12 1 
    14     12     13 1 
    15     12     17 am
    16     13     14 2 
    17     14     15 1 
    18     14     19 1 
    19     15     16 2 
    20     16     17 1 
    21     17     18 2 
    22     19     20 ar
    23     19     26 ar
    24     20     21 ar
    25     21     22 1 
    26     21     23 ar
    27     23     24 ar
    28     24     25 1 
    29     24     26 ar
    30      1     28 1 
    31      1     29 1 
    32      1     30 1 
    33      5     31 1 
    34      7     32 1 
    35      8     33 1 
    36      9     34 1 
    37     11     35 1 
    38     11     36 1 
    39     15     37 1 
    40     16     38 1 
    41     20     39 1 
    42     23     40 1 
    43     26     41 1 
    44     27     42 1 
@<TRIPOS>SUBSTRUCTURE
     1 MOL1         1 MOLECULE 1 A  MOL 
# Molecule written by the XED library from Cresset
