@<TRIPOS>MOLECULE
CHEMBL3402762_1
    66     70      1
SMALL
USER_CHARGES
@<TRIPOS>ATOM
      1  C          25.2972   29.3647   46.7015 C.3       1 MOL1        0.0000
      2  N          25.0472   30.5455   47.6646 N.4       1 MOL1        0.0000
      3  C          23.6340   30.4434   48.2818 C.3       1 MOL1        0.0000
      4  C          23.4401   31.5920   49.2829 C.3       1 MOL1        0.0000
      5  C          23.6806   32.9771   48.6432 C.3       1 MOL1        0.0000
      6  C          23.5016   34.1241   49.6598 C.3       1 MOL1        0.0000
      7  O          24.4712   34.0336   50.7093 O.3       1 MOL1        0.0000
      8  C          24.0941   33.7587   52.0109 C.ar      1 MOL1        0.0000
      9  C          25.0463   33.9328   53.0156 C.ar      1 MOL1        0.0000
     10  N          24.7792   33.7416   54.3338 N.ar      1 MOL1        0.0000
     11  C          23.5184   33.3355   54.6583 C.ar      1 MOL1        0.0000
     12  N          22.5278   33.1163   53.7486 N.ar      1 MOL1        0.0000
     13  C          22.8299   33.3247   52.4399 C.ar      1 MOL1        0.0000
     14  C          23.2238   33.0313   56.1030 C.ar      1 MOL1        0.0000
     15  C          24.2415   33.0442   57.0710 C.ar      1 MOL1        0.0000
     16  C          23.9955   32.6644   58.3898 C.ar      1 MOL1        0.0000
     17  C          22.7234   32.2550   58.7744 C.ar      1 MOL1        0.0000
     18  C          21.6814   32.2510   57.8432 C.ar      1 MOL1        0.0000
     19  C          20.2776   31.8222   58.2633 C.3       1 MOL1        0.0000
     20  N          19.9596   30.4283   57.9055 N.am      1 MOL1        0.0000
     21  N          19.5057   30.2203   56.5990 N.2       1 MOL1        0.0000
     22  C          19.2468   29.0387   56.1349 C.2       1 MOL1        0.0000
     23  C          19.4363   27.9257   57.0492 C.2       1 MOL1        0.0000
     24  C          19.8875   28.1176   58.3104 C.2       1 MOL1        0.0000
     25  C          20.2068   29.4347   58.8316 C.2       1 MOL1        0.0000
     26  O          20.6455   29.5966   59.9728 O.2       1 MOL1        0.0000
     27  C          18.7906   28.8114   54.7456 C.ar      1 MOL1        0.0000
     28  C          19.1078   29.7541   53.7518 C.ar      1 MOL1        0.0000
     29  C          18.7040   29.5653   52.4326 C.ar      1 MOL1        0.0000
     30  C          17.9727   28.4346   52.0806 C.ar      1 MOL1        0.0000
     31  C          17.6452   27.4857   53.0541 C.ar      1 MOL1        0.0000
     32  C          18.0626   27.6673   54.3751 C.ar      1 MOL1        0.0000
     33  C          16.8662   26.3141   52.6780 C.1       1 MOL1        0.0000
     34  N          16.2469   25.3833   52.3771 N.1       1 MOL1        0.0000
     35  C          21.9323   32.6609   56.5280 C.ar      1 MOL1        0.0000
     36  C          25.0622   33.0303   47.9539 C.3       1 MOL1        0.0000
     37  C          25.2640   31.8925   46.9387 C.3       1 MOL1        0.0000
     38  H          25.1789   28.4422   47.2750 H         1 MOL1        0.0000
     39  H          26.3189   29.4533   46.3281 H         1 MOL1        0.0000
     40  H          24.5692   29.4223   45.8884 H         1 MOL1        0.0000
     41  H          22.9124   30.4809   47.4607 H         1 MOL1        0.0000
     42  H          23.5641   29.4777   48.7758 H         1 MOL1        0.0000
     43  H          24.1182   31.4437   50.1259 H         1 MOL1        0.0000
     44  H          22.4311   31.5422   49.6918 H         1 MOL1        0.0000
     45  H          22.9233   33.1220   47.8691 H         1 MOL1        0.0000
     46  H          23.6730   35.0747   49.1549 H         1 MOL1        0.0000
     47  H          22.4649   34.1812   49.9843 H         1 MOL1        0.0000
     48  H          26.0449   34.2630   52.7644 H         1 MOL1        0.0000
     49  H          22.0200   33.1298   51.7543 H         1 MOL1        0.0000
     50  H          25.2505   33.3245   56.8032 H         1 MOL1        0.0000
     51  H          24.8048   32.6723   59.1083 H         1 MOL1        0.0000
     52  H          22.5475   31.9264   59.7879 H         1 MOL1        0.0000
     53  H          20.1415   32.0069   59.3313 H         1 MOL1        0.0000
     54  H          19.5506   32.4823   57.7863 H         1 MOL1        0.0000
     55  H          19.2477   26.9076   56.7408 H         1 MOL1        0.0000
     56  H          20.0324   27.2661   58.9593 H         1 MOL1        0.0000
     57  H          19.6758   30.6403   53.9934 H         1 MOL1        0.0000
     58  H          18.9589   30.2997   51.6786 H         1 MOL1        0.0000
     59  H          17.6668   28.3038   51.0519 H         1 MOL1        0.0000
     60  H          17.7985   26.9210   55.1130 H         1 MOL1        0.0000
     61  H          21.1162   32.6438   55.8207 H         1 MOL1        0.0000
     62  H          25.8511   32.9816   48.7062 H         1 MOL1        0.0000
     63  H          25.1907   33.9891   47.4494 H         1 MOL1        0.0000
     64  H          24.5527   31.9411   46.1113 H         1 MOL1        0.0000
     65  H          26.2809   31.8898   46.5439 H         1 MOL1        0.0000
     66  H          25.7364   30.5092   48.4103 H         1 MOL1        0.0000
@<TRIPOS>BOND
     1      1      2 1 
     2      2      3 1 
     3      2     37 1 
     4      3      4 1 
     5      4      5 1 
     6      5      6 1 
     7      5     36 1 
     8      6      7 1 
     9      7      8 1 
    10      8      9 ar
    11      8     13 ar
    12      9     10 ar
    13     10     11 ar
    14     11     12 ar
    15     11     14 1 
    16     12     13 ar
    17     14     15 ar
    18     14     35 ar
    19     15     16 ar
    20     16     17 ar
    21     17     18 ar
    22     18     19 1 
    23     18     35 ar
    24     19     20 1 
    25     20     21 1 
    26     20     25 am
    27     21     22 2 
    28     22     23 1 
    29     22     27 1 
    30     23     24 2 
    31     24     25 1 
    32     25     26 2 
    33     27     28 ar
    34     27     32 ar
    35     28     29 ar
    36     29     30 ar
    37     30     31 ar
    38     31     32 ar
    39     31     33 1 
    40     33     34 3 
    41     36     37 1 
    42      1     38 1 
    43      1     39 1 
    44      1     40 1 
    45      2     66 1 
    46      3     41 1 
    47      3     42 1 
    48      4     43 1 
    49      4     44 1 
    50      5     45 1 
    51      6     46 1 
    52      6     47 1 
    53      9     48 1 
    54     13     49 1 
    55     15     50 1 
    56     16     51 1 
    57     17     52 1 
    58     19     53 1 
    59     19     54 1 
    60     23     55 1 
    61     24     56 1 
    62     28     57 1 
    63     29     58 1 
    64     30     59 1 
    65     32     60 1 
    66     35     61 1 
    67     36     62 1 
    68     36     63 1 
    69     37     64 1 
    70     37     65 1 
@<TRIPOS>SUBSTRUCTURE
     1 MOL1         1 MOLECULE 1 A  MOL 
# Molecule written by the XED library from Cresset
