@<TRIPOS>MOLECULE
CHEMBL3402754_40
    45     48      1
SMALL
USER_CHARGES
@<TRIPOS>ATOM
      1  C          24.6590   34.1762   50.5924 C.3       1 MOL1        0.0000
      2  C          24.2746   33.9253   52.0374 C.ar      1 MOL1        0.0000
      3  C          25.1740   34.1478   53.0785 C.ar      1 MOL1        0.0000
      4  N          24.8532   33.9262   54.3784 N.ar      1 MOL1        0.0000
      5  C          23.5930   33.4702   54.6400 C.ar      1 MOL1        0.0000
      6  N          22.6476   33.2371   53.6867 N.ar      1 MOL1        0.0000
      7  C          23.0058   33.4672   52.3948 C.ar      1 MOL1        0.0000
      8  C          23.2543   33.1190   56.0657 C.ar      1 MOL1        0.0000
      9  C          24.2471   33.1094   57.0597 C.ar      1 MOL1        0.0000
     10  C          23.9733   32.6953   58.3618 C.ar      1 MOL1        0.0000
     11  C          22.6941   32.2720   58.7023 C.ar      1 MOL1        0.0000
     12  C          21.6732   32.2882   57.7495 C.ar      1 MOL1        0.0000
     13  C          20.2574   31.8714   58.1483 C.3       1 MOL1        0.0000
     14  N          19.9320   30.4722   57.8106 N.am      1 MOL1        0.0000
     15  N          19.3972   30.2588   56.5379 N.2       1 MOL1        0.0000
     16  C          19.0692   29.0834   56.0994 C.2       1 MOL1        0.0000
     17  C          19.3270   27.9712   57.0049 C.2       1 MOL1        0.0000
     18  C          19.8506   28.1673   58.2382 C.2       1 MOL1        0.0000
     19  C          20.1920   29.4850   58.7426 C.2       1 MOL1        0.0000
     20  O          20.6445   29.6519   59.8792 O.2       1 MOL1        0.0000
     21  C          18.4743   28.8707   54.7531 C.ar      1 MOL1        0.0000
     22  C          18.0358   27.6132   54.3055 C.ar      1 MOL1        0.0000
     23  C          17.4494   27.4603   53.0498 C.ar      1 MOL1        0.0000
     24  F          17.0192   26.2455   52.6483 F         1 MOL1        0.0000
     25  C          17.2973   28.5621   52.2108 C.ar      1 MOL1        0.0000
     26  C          17.7324   29.8153   52.6298 C.ar      1 MOL1        0.0000
     27  F          17.5797   30.8932   51.8228 F         1 MOL1        0.0000
     28  C          18.3167   29.9673   53.8856 C.ar      1 MOL1        0.0000
     29  C          21.9564   32.7247   56.4484 C.ar      1 MOL1        0.0000
     30  H          24.1190   33.5086   49.9195 H         1 MOL1        0.0000
     31  H          25.7260   34.0116   50.4397 H         1 MOL1        0.0000
     32  H          24.4303   35.2047   50.3131 H         1 MOL1        0.0000
     33  H          26.1753   34.5025   52.8776 H         1 MOL1        0.0000
     34  H          22.2484   33.2806   51.6442 H         1 MOL1        0.0000
     35  H          25.2609   33.4010   56.8192 H         1 MOL1        0.0000
     36  H          24.7626   32.6936   59.1005 H         1 MOL1        0.0000
     37  H          22.4923   31.9266   59.7076 H         1 MOL1        0.0000
     38  H          20.0950   32.0730   59.2091 H         1 MOL1        0.0000
     39  H          19.5442   32.5305   57.6458 H         1 MOL1        0.0000
     40  H          19.1172   26.9479   56.7312 H         1 MOL1        0.0000
     41  H          20.0395   27.3195   58.8782 H         1 MOL1        0.0000
     42  H          18.1211   26.7275   54.9114 H         1 MOL1        0.0000
     43  H          16.8419   28.4425   51.2385 H         1 MOL1        0.0000
     44  H          18.6407   30.9590   54.1723 H         1 MOL1        0.0000
     45  H          21.1592   32.7249   55.7179 H         1 MOL1        0.0000
@<TRIPOS>BOND
     1      1      2 1 
     2      2      3 ar
     3      2      7 ar
     4      3      4 ar
     5      4      5 ar
     6      5      6 ar
     7      5      8 1 
     8      6      7 ar
     9      8      9 ar
    10      8     29 ar
    11      9     10 ar
    12     10     11 ar
    13     11     12 ar
    14     12     13 1 
    15     12     29 ar
    16     13     14 1 
    17     14     15 1 
    18     14     19 am
    19     15     16 2 
    20     16     17 1 
    21     16     21 1 
    22     17     18 2 
    23     18     19 1 
    24     19     20 2 
    25     21     22 ar
    26     21     28 ar
    27     22     23 ar
    28     23     24 1 
    29     23     25 ar
    30     25     26 ar
    31     26     27 1 
    32     26     28 ar
    33      1     30 1 
    34      1     31 1 
    35      1     32 1 
    36      3     33 1 
    37      7     34 1 
    38      9     35 1 
    39     10     36 1 
    40     11     37 1 
    41     13     38 1 
    42     13     39 1 
    43     17     40 1 
    44     18     41 1 
    45     22     42 1 
    46     25     43 1 
    47     28     44 1 
    48     29     45 1 
@<TRIPOS>SUBSTRUCTURE
     1 MOL1         1 MOLECULE 1 A  MOL 
# Molecule written by the XED library from Cresset
