@<TRIPOS>MOLECULE
CHEMBL3402765_11-charged-pKa-8.1
    62     65      1
SMALL
USER_CHARGES
@<TRIPOS>ATOM
      1  F          17.2816   31.0754   52.1112 F         1 MOL1        0.0000
      2  C          17.5663   29.9576   52.8176 C.ar      1 MOL1        0.0000
      3  C          17.2204   28.7069   52.3169 C.ar      1 MOL1        0.0000
      4  C          17.5045   27.5609   53.0572 C.ar      1 MOL1        0.0000
      5  F          17.1492   26.3482   52.5773 F         1 MOL1        0.0000
      6  C          18.1372   27.6641   54.2964 C.ar      1 MOL1        0.0000
      7  C          18.4805   28.9202   54.8292 C.ar      1 MOL1        0.0000
      8  C          18.1932   30.0628   54.0561 C.ar      1 MOL1        0.0000
      9  C          19.0915   29.0865   56.1754 C.2       1 MOL1        0.0000
     10  N          19.4480   30.2440   56.6384 N.2       1 MOL1        0.0000
     11  N          19.9872   30.4154   57.9169 N.am      1 MOL1        0.0000
     12  C          20.3516   31.7988   58.2814 C.3       1 MOL1        0.0000
     13  C          21.7041   32.2478   57.7248 C.ar      1 MOL1        0.0000
     14  C          22.8361   32.2592   58.5463 C.ar      1 MOL1        0.0000
     15  C          24.0614   32.6950   58.0440 C.ar      1 MOL1        0.0000
     16  C          24.1708   33.1134   56.7180 C.ar      1 MOL1        0.0000
     17  C          23.0463   33.1012   55.8772 C.ar      1 MOL1        0.0000
     18  N          23.0717   33.4390   54.5115 N.am      1 MOL1        0.0000
     19  C          24.1496   33.7673   53.6964 C.2       1 MOL1        0.0000
     20  O          25.3229   33.9268   54.0317 O.2       1 MOL1        0.0000
     21  O          23.6922   33.9229   52.4360 O.3       1 MOL1        0.0000
     22  C          24.5555   34.3241   51.3706 C.3       1 MOL1        0.0000
     23  C          24.9605   33.1210   50.5062 C.3       1 MOL1        0.0000
     24  C          23.7698   32.4740   49.7769 C.3       1 MOL1        0.0000
     25  N          24.2474   31.2754   48.9228 N.4       1 MOL1        0.0000
     26  C          24.9826   31.7341   47.6405 C.3       1 MOL1        0.0000
     27  C          25.3999   30.4887   46.8374 C.3       1 MOL1        0.0000
     28  O          24.2725   29.6655   46.5504 O.3       1 MOL1        0.0000
     29  C          23.5838   29.1848   47.7005 C.3       1 MOL1        0.0000
     30  C          23.0596   30.3553   48.5561 C.3       1 MOL1        0.0000
     31  C          21.8149   32.6843   56.3987 C.ar      1 MOL1        0.0000
     32  C          20.2116   29.4040   58.8272 C.2       1 MOL1        0.0000
     33  O          20.6467   29.5340   59.9745 O.2       1 MOL1        0.0000
     34  C          19.8462   28.1043   58.2906 C.2       1 MOL1        0.0000
     35  C          19.3150   27.9488   57.0557 C.2       1 MOL1        0.0000
     36  H          16.7228   28.6247   51.3638 H         1 MOL1        0.0000
     37  H          18.3289   26.7384   54.8198 H         1 MOL1        0.0000
     38  H          18.4373   31.0512   54.4133 H         1 MOL1        0.0000
     39  H          20.3352   31.9552   59.3633 H         1 MOL1        0.0000
     40  H          19.5785   32.4740   57.9083 H         1 MOL1        0.0000
     41  H          22.7680   31.9276   59.5733 H         1 MOL1        0.0000
     42  H          24.9369   32.7045   58.6794 H         1 MOL1        0.0000
     43  H          25.1406   33.4331   56.3731 H         1 MOL1        0.0000
     44  H          22.1815   33.4019   54.0390 H         1 MOL1        0.0000
     45  H          25.4474   34.8305   51.7432 H         1 MOL1        0.0000
     46  H          24.0329   35.0555   50.7548 H         1 MOL1        0.0000
     47  H          25.4479   32.3780   51.1334 H         1 MOL1        0.0000
     48  H          25.7125   33.4630   49.7972 H         1 MOL1        0.0000
     49  H          23.2443   33.1592   49.1096 H         1 MOL1        0.0000
     50  H          23.0627   32.0705   50.5030 H         1 MOL1        0.0000
     51  H          25.8476   32.3258   47.9311 H         1 MOL1        0.0000
     52  H          24.2873   32.3578   47.0764 H         1 MOL1        0.0000
     53  H          26.1483   29.9176   47.3875 H         1 MOL1        0.0000
     54  H          25.8649   30.7828   45.8963 H         1 MOL1        0.0000
     55  H          24.2465   28.5388   48.2809 H         1 MOL1        0.0000
     56  H          22.7528   28.5585   47.3733 H         1 MOL1        0.0000
     57  H          22.5999   30.0141   49.4822 H         1 MOL1        0.0000
     58  H          22.3468   30.9683   48.0008 H         1 MOL1        0.0000
     59  H          20.9378   32.6688   55.7673 H         1 MOL1        0.0000
     60  H          20.0003   27.2406   58.9192 H         1 MOL1        0.0000
     61  H          19.0693   26.9394   56.7608 H         1 MOL1        0.0000
     62  H          24.8973   30.7375   49.4781 H         1 MOL1        0.0000
@<TRIPOS>BOND
     1      1      2 1 
     2      2      3 ar
     3      2      8 ar
     4      3      4 ar
     5      4      5 1 
     6      4      6 ar
     7      6      7 ar
     8      7      8 ar
     9      7      9 1 
    10      9     10 2 
    11      9     35 1 
    12     10     11 1 
    13     11     12 1 
    14     11     32 am
    15     12     13 1 
    16     13     14 ar
    17     13     31 ar
    18     14     15 ar
    19     15     16 ar
    20     16     17 ar
    21     17     18 1 
    22     17     31 ar
    23     18     19 am
    24     19     20 2 
    25     19     21 1 
    26     21     22 1 
    27     22     23 1 
    28     23     24 1 
    29     24     25 1 
    30     25     26 1 
    31     25     30 1 
    32     26     27 1 
    33     27     28 1 
    34     28     29 1 
    35     29     30 1 
    36     32     33 2 
    37     32     34 1 
    38     34     35 2 
    39      3     36 1 
    40      6     37 1 
    41      8     38 1 
    42     12     39 1 
    43     12     40 1 
    44     14     41 1 
    45     15     42 1 
    46     16     43 1 
    47     18     44 1 
    48     22     45 1 
    49     22     46 1 
    50     23     47 1 
    51     23     48 1 
    52     24     49 1 
    53     24     50 1 
    54     25     62 1 
    55     26     51 1 
    56     26     52 1 
    57     27     53 1 
    58     27     54 1 
    59     29     55 1 
    60     29     56 1 
    61     30     57 1 
    62     30     58 1 
    63     31     59 1 
    64     34     60 1 
    65     35     61 1 
@<TRIPOS>SUBSTRUCTURE
     1 MOL1         1 MOLECULE 1 A  MOL 
# Molecule written by the XED library from Cresset
