@<TRIPOS>MOLECULE
CHEMBL3402749_500
    43     46      1
SMALL
USER_CHARGES
@<TRIPOS>ATOM
      1  C          23.1880   32.9654   51.3241 C.3       1 MOL1        0.0000
      2  C          23.7323   33.2938   52.6892 C.ar      1 MOL1        0.0000
      3  O          23.0073   32.9075   53.7669 O.3       1 MOL1        0.0000
      4  C          23.7531   33.3159   54.8274 C.ar      1 MOL1        0.0000
      5  N          24.8721   33.9267   54.4916 N.ar      1 MOL1        0.0000
      6  C          24.8644   33.9263   53.1729 C.ar      1 MOL1        0.0000
      7  C          23.2892   32.9610   56.2042 C.ar      1 MOL1        0.0000
      8  C          24.2048   32.9742   57.2615 C.ar      1 MOL1        0.0000
      9  C          23.8221   32.5836   58.5407 C.ar      1 MOL1        0.0000
     10  C          22.5149   32.1657   58.7756 C.ar      1 MOL1        0.0000
     11  C          21.5818   32.1409   57.7366 C.ar      1 MOL1        0.0000
     12  C          20.1455   31.7068   58.0189 C.3       1 MOL1        0.0000
     13  N          19.8731   30.2933   57.7046 N.am      1 MOL1        0.0000
     14  N          19.4074   30.0305   56.4137 N.2       1 MOL1        0.0000
     15  C          19.1391   28.8313   56.0058 C.2       1 MOL1        0.0000
     16  C          19.3681   27.7586   56.9585 C.2       1 MOL1        0.0000
     17  C          19.8455   28.0025   58.1991 C.2       1 MOL1        0.0000
     18  C          20.1419   29.3425   58.6718 C.2       1 MOL1        0.0000
     19  O          20.5653   29.5511   59.8118 O.2       1 MOL1        0.0000
     20  C          18.6371   28.5332   54.6464 C.ar      1 MOL1        0.0000
     21  C          17.8474   27.4018   54.3854 C.ar      1 MOL1        0.0000
     22  C          17.4031   27.1223   53.0956 C.ar      1 MOL1        0.0000
     23  F          16.6416   26.0297   52.8665 F         1 MOL1        0.0000
     24  C          17.7375   27.9725   52.0441 C.ar      1 MOL1        0.0000
     25  C          18.5167   29.1012   52.2829 C.ar      1 MOL1        0.0000
     26  F          18.8413   29.9267   51.2621 F         1 MOL1        0.0000
     27  C          18.9657   29.3808   53.5740 C.ar      1 MOL1        0.0000
     28  C          21.9709   32.5531   56.4542 C.ar      1 MOL1        0.0000
     29  H          22.9983   31.8957   51.2119 H         1 MOL1        0.0000
     30  H          23.8766   33.2580   50.5307 H         1 MOL1        0.0000
     31  H          22.2474   33.4816   51.1371 H         1 MOL1        0.0000
     32  H          25.6629   34.3552   52.5844 H         1 MOL1        0.0000
     33  H          25.2268   33.2791   57.0912 H         1 MOL1        0.0000
     34  H          24.5411   32.6009   59.3447 H         1 MOL1        0.0000
     35  H          22.2263   31.8517   59.7692 H         1 MOL1        0.0000
     36  H          19.8857   31.9387   59.0540 H         1 MOL1        0.0000
     37  H          19.4697   32.3355   57.4353 H         1 MOL1        0.0000
     38  H          19.1925   26.7263   56.6886 H         1 MOL1        0.0000
     39  H          20.0255   27.1780   58.8725 H         1 MOL1        0.0000
     40  H          17.5634   26.7263   55.1785 H         1 MOL1        0.0000
     41  H          17.3976   27.7504   51.0440 H         1 MOL1        0.0000
     42  H          19.5782   30.2568   53.7298 H         1 MOL1        0.0000
     43  H          21.2542   32.5276   55.6465 H         1 MOL1        0.0000
@<TRIPOS>BOND
     1      1      2 1 
     2      2      3 ar
     3      2      6 ar
     4      3      4 ar
     5      4      5 ar
     6      4      7 1 
     7      5      6 ar
     8      7      8 ar
     9      7     28 ar
    10      8      9 ar
    11      9     10 ar
    12     10     11 ar
    13     11     12 1 
    14     11     28 ar
    15     12     13 1 
    16     13     14 1 
    17     13     18 am
    18     14     15 2 
    19     15     16 1 
    20     15     20 1 
    21     16     17 2 
    22     17     18 1 
    23     18     19 2 
    24     20     21 ar
    25     20     27 ar
    26     21     22 ar
    27     22     23 1 
    28     22     24 ar
    29     24     25 ar
    30     25     26 1 
    31     25     27 ar
    32      1     29 1 
    33      1     30 1 
    34      1     31 1 
    35      6     32 1 
    36      8     33 1 
    37      9     34 1 
    38     10     35 1 
    39     12     36 1 
    40     12     37 1 
    41     16     38 1 
    42     17     39 1 
    43     21     40 1 
    44     24     41 1 
    45     27     42 1 
    46     28     43 1 
@<TRIPOS>SUBSTRUCTURE
     1 MOL1         1 MOLECULE 1 A  MOL 
# Molecule written by the XED library from Cresset
