@<TRIPOS>MOLECULE
CHEMBL3402756_2.7
    61     64      1
SMALL
USER_CHARGES
@<TRIPOS>ATOM
      1  C          22.9982   29.9362   47.9072 C.3       1 MOL1        0.0000
      2  N          24.3278   30.6778   48.1609 N.4       1 MOL1        0.0000
      3  C          25.2664   30.5513   46.9393 C.3       1 MOL1        0.0000
      4  C          24.0978   32.1445   48.6051 C.3       1 MOL1        0.0000
      5  C          25.3345   32.6707   49.3599 C.3       1 MOL1        0.0000
      6  C          25.1667   34.0667   49.9645 C.3       1 MOL1        0.0000
      7  O          23.9434   34.1323   50.6770 O.3       1 MOL1        0.0000
      8  C          23.8842   33.7706   52.0053 C.ar      1 MOL1        0.0000
      9  C          24.9032   33.9262   52.9577 C.ar      1 MOL1        0.0000
     10  N          24.7082   33.6761   54.2810 N.ar      1 MOL1        0.0000
     11  C          23.4676   33.2411   54.6519 C.ar      1 MOL1        0.0000
     12  N          22.4407   33.0212   53.7890 N.ar      1 MOL1        0.0000
     13  C          22.6702   33.2865   52.4828 C.ar      1 MOL1        0.0000
     14  C          23.2133   32.9433   56.1005 C.ar      1 MOL1        0.0000
     15  C          24.2471   32.9703   57.0489 C.ar      1 MOL1        0.0000
     16  C          24.0213   32.6080   58.3754 C.ar      1 MOL1        0.0000
     17  C          22.7536   32.2027   58.7775 C.ar      1 MOL1        0.0000
     18  C          21.6963   32.1902   57.8694 C.ar      1 MOL1        0.0000
     19  C          20.2957   31.7807   58.3139 C.3       1 MOL1        0.0000
     20  N          19.9550   30.3978   57.9357 N.am      1 MOL1        0.0000
     21  N          19.4349   30.2277   56.6502 N.2       1 MOL1        0.0000
     22  C          19.0827   29.0695   56.1873 C.2       1 MOL1        0.0000
     23  C          19.3170   27.9301   57.0633 C.2       1 MOL1        0.0000
     24  C          19.8474   28.0856   58.2968 C.2       1 MOL1        0.0000
     25  C          20.1991   29.3867   58.8373 C.2       1 MOL1        0.0000
     26  O          20.6471   29.5265   59.9760 O.2       1 MOL1        0.0000
     27  C          18.4608   28.9036   54.8502 C.ar      1 MOL1        0.0000
     28  C          18.0110   30.0386   54.1489 C.ar      1 MOL1        0.0000
     29  C          17.3558   29.9185   52.9254 C.ar      1 MOL1        0.0000
     30  F          16.9185   31.0287   52.2852 F         1 MOL1        0.0000
     31  C          17.1385   28.6589   52.3755 C.ar      1 MOL1        0.0000
     32  C          17.5843   27.5222   53.0461 C.ar      1 MOL1        0.0000
     33  F          17.3561   26.2982   52.5187 F         1 MOL1        0.0000
     34  C          18.2471   27.6433   54.2678 C.ar      1 MOL1        0.0000
     35  C          21.9285   32.5770   56.5496 C.ar      1 MOL1        0.0000
     36  H          22.4084   29.9823   48.8233 H         1 MOL1        0.0000
     37  H          23.2350   28.9005   47.6614 H         1 MOL1        0.0000
     38  H          22.4853   30.4335   47.0812 H         1 MOL1        0.0000
     39  H          26.2201   31.0264   47.1753 H         1 MOL1        0.0000
     40  H          24.7849   31.0399   46.0894 H         1 MOL1        0.0000
     41  H          25.4169   29.4867   46.7506 H         1 MOL1        0.0000
     42  H          23.8475   32.7233   47.7129 H         1 MOL1        0.0000
     43  H          23.2308   32.1204   49.2704 H         1 MOL1        0.0000
     44  H          25.5937   31.9729   50.1566 H         1 MOL1        0.0000
     45  H          26.1821   32.7267   48.6768 H         1 MOL1        0.0000
     46  H          26.0431   34.3269   50.5594 H         1 MOL1        0.0000
     47  H          25.1075   34.8007   49.1596 H         1 MOL1        0.0000
     48  H          25.8727   34.3172   52.6928 H         1 MOL1        0.0000
     49  H          21.8471   33.1264   51.8061 H         1 MOL1        0.0000
     50  H          25.2516   33.2553   56.7722 H         1 MOL1        0.0000
     51  H          24.8402   32.6301   59.0814 H         1 MOL1        0.0000
     52  H          22.5933   31.8934   59.7997 H         1 MOL1        0.0000
     53  H          20.1839   31.9493   59.3885 H         1 MOL1        0.0000
     54  H          19.5726   32.4652   57.8639 H         1 MOL1        0.0000
     55  H          19.0791   26.9217   56.7594 H         1 MOL1        0.0000
     56  H          20.0182   27.2186   58.9202 H         1 MOL1        0.0000
     57  H          18.1470   31.0302   54.5541 H         1 MOL1        0.0000
     58  H          16.6177   28.5582   51.4351 H         1 MOL1        0.0000
     59  H          18.5720   26.7303   54.7431 H         1 MOL1        0.0000
     60  H          21.0976   32.5492   55.8598 H         1 MOL1        0.0000
     61  H          24.7827   30.2113   48.9368 H         1 MOL1        0.0000
@<TRIPOS>BOND
     1      1      2 1 
     2      2      3 1 
     3      2      4 1 
     4      4      5 1 
     5      5      6 1 
     6      6      7 1 
     7      7      8 1 
     8      8      9 ar
     9      8     13 ar
    10      9     10 ar
    11     10     11 ar
    12     11     12 ar
    13     11     14 1 
    14     12     13 ar
    15     14     15 ar
    16     14     35 ar
    17     15     16 ar
    18     16     17 ar
    19     17     18 ar
    20     18     19 1 
    21     18     35 ar
    22     19     20 1 
    23     20     21 1 
    24     20     25 am
    25     21     22 2 
    26     22     23 1 
    27     22     27 1 
    28     23     24 2 
    29     24     25 1 
    30     25     26 2 
    31     27     28 ar
    32     27     34 ar
    33     28     29 ar
    34     29     30 1 
    35     29     31 ar
    36     31     32 ar
    37     32     33 1 
    38     32     34 ar
    39      1     36 1 
    40      1     37 1 
    41      1     38 1 
    42      2     61 1 
    43      3     39 1 
    44      3     40 1 
    45      3     41 1 
    46      4     42 1 
    47      4     43 1 
    48      5     44 1 
    49      5     45 1 
    50      6     46 1 
    51      6     47 1 
    52      9     48 1 
    53     13     49 1 
    54     15     50 1 
    55     16     51 1 
    56     17     52 1 
    57     19     53 1 
    58     19     54 1 
    59     23     55 1 
    60     24     56 1 
    61     28     57 1 
    62     31     58 1 
    63     34     59 1 
    64     35     60 1 
@<TRIPOS>SUBSTRUCTURE
     1 MOL1         1 MOLECULE 1 A  MOL 
# Molecule written by the XED library from Cresset
