@<TRIPOS>MOLECULE
CHEMBL3402743_42
    57     59      1
SMALL
USER_CHARGES
@<TRIPOS>ATOM
      1  C          24.1307   31.2988   47.8294 C.3       1 MOL1        0.0000
      2  N          25.0469   32.2887   48.5804 N.4       1 MOL1        0.0000
      3  C          25.1226   33.6645   47.8845 C.3       1 MOL1        0.0000
      4  C          24.7621   32.3673   50.0986 C.3       1 MOL1        0.0000
      5  C          23.4022   33.0226   50.4217 C.3       1 MOL1        0.0000
      6  C          23.1284   33.0780   51.9260 C.3       1 MOL1        0.0000
      7  O          24.1634   33.8263   52.5697 O.3       1 MOL1        0.0000
      8  C          24.3524   33.8857   53.9176 C.2       1 MOL1        0.0000
      9  O          25.4033   34.3257   54.3776 O.2       1 MOL1        0.0000
     10  N          23.2482   33.4270   54.6434 N.am      1 MOL1        0.0000
     11  C          23.1370   33.1250   56.0094 C.ar      1 MOL1        0.0000
     12  C          24.2143   33.1248   56.9090 C.ar      1 MOL1        0.0000
     13  C          24.0252   32.7062   58.2246 C.ar      1 MOL1        0.0000
     14  C          22.7705   32.2714   58.6521 C.ar      1 MOL1        0.0000
     15  C          21.6863   32.2743   57.7701 C.ar      1 MOL1        0.0000
     16  C          20.3025   31.8402   58.2496 C.3       1 MOL1        0.0000
     17  N          19.9634   30.4477   57.9026 N.am      1 MOL1        0.0000
     18  N          19.4463   30.2402   56.6192 N.2       1 MOL1        0.0000
     19  C          19.1308   29.0660   56.1704 C.2       1 MOL1        0.0000
     20  C          19.3736   27.9499   57.0774 C.2       1 MOL1        0.0000
     21  C          19.8766   28.1437   58.3179 C.2       1 MOL1        0.0000
     22  C          20.2104   29.4566   58.8326 C.2       1 MOL1        0.0000
     23  O          20.6463   29.6206   59.9751 O.2       1 MOL1        0.0000
     24  C          18.5497   28.8548   54.8168 C.ar      1 MOL1        0.0000
     25  C          18.0818   27.5994   54.3835 C.ar      1 MOL1        0.0000
     26  C          17.5074   27.4408   53.1218 C.ar      1 MOL1        0.0000
     27  F          17.0467   26.2296   52.7384 F         1 MOL1        0.0000
     28  C          17.4033   28.5299   52.2618 C.ar      1 MOL1        0.0000
     29  C          17.8673   29.7781   52.6646 C.ar      1 MOL1        0.0000
     30  F          17.7609   30.8419   51.8371 F         1 MOL1        0.0000
     31  C          18.4356   29.9375   53.9276 C.ar      1 MOL1        0.0000
     32  C          21.8747   32.7140   56.4546 C.ar      1 MOL1        0.0000
     33  H          24.1876   30.3383   48.3460 H         1 MOL1        0.0000
     34  H          24.5150   31.2115   46.8123 H         1 MOL1        0.0000
     35  H          23.1151   31.6971   47.8315 H         1 MOL1        0.0000
     36  H          25.8108   34.2890   48.4583 H         1 MOL1        0.0000
     37  H          24.1211   34.0936   47.8521 H         1 MOL1        0.0000
     38  H          25.5049   33.4937   46.8770 H         1 MOL1        0.0000
     39  H          24.8307   31.3415   50.4685 H         1 MOL1        0.0000
     40  H          25.6021   32.9259   50.5162 H         1 MOL1        0.0000
     41  H          23.3634   34.0403   50.0275 H         1 MOL1        0.0000
     42  H          22.5892   32.4739   49.9457 H         1 MOL1        0.0000
     43  H          22.1627   33.5458   52.1190 H         1 MOL1        0.0000
     44  H          23.0888   32.0635   52.3319 H         1 MOL1        0.0000
     45  H          22.4154   33.2522   54.1019 H         1 MOL1        0.0000
     46  H          25.2089   33.4237   56.6125 H         1 MOL1        0.0000
     47  H          24.8630   32.7065   58.9086 H         1 MOL1        0.0000
     48  H          22.6414   31.9261   59.6686 H         1 MOL1        0.0000
     49  H          20.2139   32.0303   59.3222 H         1 MOL1        0.0000
     50  H          19.5576   32.5036   57.8026 H         1 MOL1        0.0000
     51  H          19.1728   26.9292   56.7918 H         1 MOL1        0.0000
     52  H          20.0565   27.2935   58.9600 H         1 MOL1        0.0000
     53  H          18.1260   26.7262   55.0106 H         1 MOL1        0.0000
     54  H          16.9594   28.4049   51.2856 H         1 MOL1        0.0000
     55  H          18.7785   30.9226   54.2072 H         1 MOL1        0.0000
     56  H          21.0345   32.6999   55.7730 H         1 MOL1        0.0000
     57  H          25.9892   31.8985   48.5302 H         1 MOL1        0.0000
@<TRIPOS>BOND
     1      1      2 1 
     2      2      3 1 
     3      2      4 1 
     4      4      5 1 
     5      5      6 1 
     6      6      7 1 
     7      7      8 1 
     8      8      9 2 
     9      8     10 am
    10     10     11 1 
    11     11     12 ar
    12     11     32 ar
    13     12     13 ar
    14     13     14 ar
    15     14     15 ar
    16     15     16 1 
    17     15     32 ar
    18     16     17 1 
    19     17     18 1 
    20     17     22 am
    21     18     19 2 
    22     19     20 1 
    23     19     24 1 
    24     20     21 2 
    25     21     22 1 
    26     22     23 2 
    27     24     25 ar
    28     24     31 ar
    29     25     26 ar
    30     26     27 1 
    31     26     28 ar
    32     28     29 ar
    33     29     30 1 
    34     29     31 ar
    35      1     33 1 
    36      1     34 1 
    37      1     35 1 
    38      2     57 1 
    39      3     36 1 
    40      3     37 1 
    41      3     38 1 
    42      4     39 1 
    43      4     40 1 
    44      5     41 1 
    45      5     42 1 
    46      6     43 1 
    47      6     44 1 
    48     10     45 1 
    49     12     46 1 
    50     13     47 1 
    51     14     48 1 
    52     16     49 1 
    53     16     50 1 
    54     20     51 1 
    55     21     52 1 
    56     25     53 1 
    57     28     54 1 
    58     31     55 1 
    59     32     56 1 
@<TRIPOS>SUBSTRUCTURE
     1 MOL1         1 MOLECULE 1 A  MOL 
# Molecule written by the XED library from Cresset
