@<TRIPOS>MOLECULE
CHEMBL3402761_1
    63     67      1
SMALL
USER_CHARGES
@<TRIPOS>ATOM
      1  O          20.6270   29.5265   59.9403 O.2       1 MOL1        0.0000
      2  C          20.1829   29.3653   58.8001 C.2       1 MOL1        0.0000
      3  C          19.8506   28.0457   58.2897 C.2       1 MOL1        0.0000
      4  C          19.3754   27.8491   57.0403 C.2       1 MOL1        0.0000
      5  C          19.1767   28.9531   56.1176 C.2       1 MOL1        0.0000
      6  N          19.4497   30.1369   56.5714 N.2       1 MOL1        0.0000
      7  N          19.9289   30.3529   57.8691 N.am      1 MOL1        0.0000
      8  C          20.2272   31.7541   58.2201 C.3       1 MOL1        0.0000
      9  C          21.6335   32.2198   57.8298 C.ar      1 MOL1        0.0000
     10  C          22.6557   32.2345   58.7758 C.ar      1 MOL1        0.0000
     11  C          23.9255   32.6947   58.4300 C.ar      1 MOL1        0.0000
     12  C          24.1809   33.1262   57.1291 C.ar      1 MOL1        0.0000
     13  C          23.1796   33.1186   56.1459 C.ar      1 MOL1        0.0000
     14  C          21.8982   32.6757   56.5340 C.ar      1 MOL1        0.0000
     15  C          23.4866   33.4885   54.7188 C.ar      1 MOL1        0.0000
     16  N          24.7735   33.7939   54.3763 N.ar      1 MOL1        0.0000
     17  C          25.0455   33.9261   53.0474 C.ar      1 MOL1        0.0000
     18  C          24.0793   33.7512   52.0531 C.ar      1 MOL1        0.0000
     19  O          24.4620   33.8044   50.7208 O.3       1 MOL1        0.0000
     20  C          23.5165   33.5647   49.6672 C.3       1 MOL1        0.0000
     21  C          22.8204   32.1758   49.7068 C.3       1 MOL1        0.0000
     22  N          23.1410   31.3200   48.5625 N.3       1 MOL1        0.0000
     23  C          22.2179   30.1779   48.5055 C.3       1 MOL1        0.0000
     24  C          22.5690   29.2456   47.3242 C.3       1 MOL1        0.0000
     25  O          23.9278   28.8247   47.3937 O.3       1 MOL1        0.0000
     26  C          24.8503   29.9097   47.4537 C.3       1 MOL1        0.0000
     27  C          24.5319   30.8525   48.6318 C.3       1 MOL1        0.0000
     28  C          22.7764   33.5181   52.5153 C.ar      1 MOL1        0.0000
     29  N          22.4655   33.3787   53.8269 N.ar      1 MOL1        0.0000
     30  C          18.7029   28.7100   54.7362 C.ar      1 MOL1        0.0000
     31  C          18.9902   29.6554   53.7347 C.ar      1 MOL1        0.0000
     32  C          18.5804   29.4532   52.4203 C.ar      1 MOL1        0.0000
     33  C          17.8711   28.3033   52.0789 C.ar      1 MOL1        0.0000
     34  C          17.5750   27.3490   53.0531 C.ar      1 MOL1        0.0000
     35  C          17.9978   27.5468   54.3733 C.ar      1 MOL1        0.0000
     36  C          16.8353   26.1529   52.6794 C.1       1 MOL1        0.0000
     37  N          16.2471   25.2029   52.3739 N.1       1 MOL1        0.0000
     38  H          20.0054   27.1985   58.9415 H         1 MOL1        0.0000
     39  H          19.1747   26.8274   56.7472 H         1 MOL1        0.0000
     40  H          20.0624   31.9423   59.2831 H         1 MOL1        0.0000
     41  H          19.5002   32.4009   57.7262 H         1 MOL1        0.0000
     42  H          22.4704   31.8955   59.7838 H         1 MOL1        0.0000
     43  H          24.7161   32.7081   59.1652 H         1 MOL1        0.0000
     44  H          25.1811   33.4579   56.8889 H         1 MOL1        0.0000
     45  H          21.0942   32.6452   55.8119 H         1 MOL1        0.0000
     46  H          26.0725   34.1248   52.7752 H         1 MOL1        0.0000
     47  H          24.0621   33.6894   48.7289 H         1 MOL1        0.0000
     48  H          22.7678   34.3543   49.6289 H         1 MOL1        0.0000
     49  H          21.7449   32.3447   49.7366 H         1 MOL1        0.0000
     50  H          23.0711   31.6427   50.6256 H         1 MOL1        0.0000
     51  H          22.2387   29.6086   49.4364 H         1 MOL1        0.0000
     52  H          21.1943   30.5352   48.3859 H         1 MOL1        0.0000
     53  H          21.9285   28.3638   47.3407 H         1 MOL1        0.0000
     54  H          22.3764   29.7434   46.3695 H         1 MOL1        0.0000
     55  H          25.8514   29.5045   47.5698 H         1 MOL1        0.0000
     56  H          24.8528   30.4604   46.5109 H         1 MOL1        0.0000
     57  H          24.7139   30.3366   49.5754 H         1 MOL1        0.0000
     58  H          25.2195   31.6992   48.6085 H         1 MOL1        0.0000
     59  H          21.9441   33.3882   51.8472 H         1 MOL1        0.0000
     60  H          19.5448   30.5542   53.9657 H         1 MOL1        0.0000
     61  H          18.8169   30.1842   51.6597 H         1 MOL1        0.0000
     62  H          17.5652   28.1587   51.0520 H         1 MOL1        0.0000
     63  H          17.7611   26.7954   55.1128 H         1 MOL1        0.0000
@<TRIPOS>BOND
     1      1      2 2 
     2      2      3 1 
     3      2      7 am
     4      3      4 2 
     5      4      5 1 
     6      5      6 2 
     7      5     30 1 
     8      6      7 1 
     9      7      8 1 
    10      8      9 1 
    11      9     10 ar
    12      9     14 ar
    13     10     11 ar
    14     11     12 ar
    15     12     13 ar
    16     13     14 ar
    17     13     15 1 
    18     15     16 ar
    19     15     29 ar
    20     16     17 ar
    21     17     18 ar
    22     18     19 1 
    23     18     28 ar
    24     19     20 1 
    25     20     21 1 
    26     21     22 1 
    27     22     23 1 
    28     22     27 1 
    29     23     24 1 
    30     24     25 1 
    31     25     26 1 
    32     26     27 1 
    33     28     29 ar
    34     30     31 ar
    35     30     35 ar
    36     31     32 ar
    37     32     33 ar
    38     33     34 ar
    39     34     35 ar
    40     34     36 1 
    41     36     37 3 
    42      3     38 1 
    43      4     39 1 
    44      8     40 1 
    45      8     41 1 
    46     10     42 1 
    47     11     43 1 
    48     12     44 1 
    49     14     45 1 
    50     17     46 1 
    51     20     47 1 
    52     20     48 1 
    53     21     49 1 
    54     21     50 1 
    55     23     51 1 
    56     23     52 1 
    57     24     53 1 
    58     24     54 1 
    59     26     55 1 
    60     26     56 1 
    61     27     57 1 
    62     27     58 1 
    63     28     59 1 
    64     31     60 1 
    65     32     61 1 
    66     33     62 1 
    67     35     63 1 
@<TRIPOS>SUBSTRUCTURE
     1 MOL1         1 MOLECULE 1 A  MOL 
# Molecule written by the XED library from Cresset
