@<TRIPOS>MOLECULE
20
    47     50      1
SMALL
USER_CHARGES
@<TRIPOS>ATOM
      1  C          92.5739   47.3336  266.4565 C.ar      1 MOL1        0.0000
      2  C          91.6324   48.3172  266.6741 C.ar      1 MOL1        0.0000
      3  C          91.9632   49.5168  267.2998 C.ar      1 MOL1        0.0000
      4  C          93.2765   49.7975  267.6777 C.ar      1 MOL1        0.0000
      5  C          93.8958   47.5362  266.9051 C.ar      1 MOL1        0.0000
      6  C          94.2730   48.7873  267.5121 C.ar      1 MOL1        0.0000
      7  N          95.5665   48.9603  267.9406 N.ar      1 MOL1        0.0000
      8  C          96.4572   47.9542  267.7463 C.ar      1 MOL1        0.0000
      9  C          96.0617   46.7355  267.2061 C.ar      1 MOL1        0.0000
     10  N          94.8014   46.5336  266.7720 N.ar      1 MOL1        0.0000
     11  N          90.2859   48.1283  266.3232 N.pl3     1 MOL1        0.0000
     12  C          89.7235   47.3483  265.2931 C.ar      1 MOL1        0.0000
     13  C          90.4123   47.1279  264.0929 C.ar      1 MOL1        0.0000
     14  N          89.9113   46.4423  263.0352 N.ar      1 MOL1        0.0000
     15  C          88.6625   45.9485  263.1520 C.ar      1 MOL1        0.0000
     16  C          87.8836   46.0962  264.3010 C.ar      1 MOL1        0.0000
     17  C          88.4186   46.7903  265.3979 C.ar      1 MOL1        0.0000
     18  S          87.4853   46.8968  266.9278 S.3       1 MOL1        0.0000
     19  O          86.1266   46.3735  266.6676 O.2       1 MOL1        0.0000
     20  O          87.6688   48.2339  267.4732 O.2       1 MOL1        0.0000
     21  C          88.3809   45.6744  268.0584 C.3       1 MOL1        0.0000
     22  C          93.5881   51.1129  268.3403 C.ar      1 MOL1        0.0000
     23  C          92.8836   51.4776  269.4978 C.ar      1 MOL1        0.0000
     24  C          93.2031   52.6955  270.1335 C.ar      1 MOL1        0.0000
     25  C          94.1885   53.5265  269.6279 C.ar      1 MOL1        0.0000
     26  C          94.8277   53.1962  268.4343 C.ar      1 MOL1        0.0000
     27  C          94.5514   51.9702  267.8248 C.ar      1 MOL1        0.0000
     28  O          95.7310   53.9715  267.7910 O.3       1 MOL1        0.0000
     29  C          96.0567   55.2652  268.3379 C.3       1 MOL1        0.0000
     30  H          92.2595   46.3832  266.0442 H         1 MOL1        0.0000
     31  H          91.2173   50.2889  267.4386 H         1 MOL1        0.0000
     32  H          97.4708   48.1510  268.0435 H         1 MOL1        0.0000
     33  H          96.7711   45.9434  267.0164 H         1 MOL1        0.0000
     34  H          89.5459   48.5927  266.8587 H         1 MOL1        0.0000
     35  H          91.4056   47.5266  263.9863 H         1 MOL1        0.0000
     36  H          88.2721   45.3858  262.3253 H         1 MOL1        0.0000
     37  H          86.8893   45.6433  264.3947 H         1 MOL1        0.0000
     38  H          87.8667   45.6399  269.0059 H         1 MOL1        0.0000
     39  H          89.4103   46.0058  268.1533 H         1 MOL1        0.0000
     40  H          88.3460   44.7025  267.5724 H         1 MOL1        0.0000
     41  H          92.1602   50.8128  269.9492 H         1 MOL1        0.0000
     42  H          92.6820   52.9469  271.0559 H         1 MOL1        0.0000
     43  H          94.3579   54.4739  270.1172 H         1 MOL1        0.0000
     44  H          95.0346   51.7174  266.8952 H         1 MOL1        0.0000
     45  H          96.7832   55.7693  267.6972 H         1 MOL1        0.0000
     46  H          96.5109   55.1557  269.3242 H         1 MOL1        0.0000
     47  H          95.1871   55.9195  268.4266 H         1 MOL1        0.0000
@<TRIPOS>BOND
     1      1      2 ar
     2      1      5 ar
     3      2      3 ar
     4      2     11 1 
     5      3      4 ar
     6      4      6 ar
     7      4     22 1 
     8      5      6 ar
     9      5     10 ar
    10      6      7 ar
    11      7      8 ar
    12      8      9 ar
    13      9     10 ar
    14     11     12 1 
    15     12     13 ar
    16     12     17 ar
    17     13     14 ar
    18     14     15 ar
    19     15     16 ar
    20     16     17 ar
    21     17     18 1 
    22     18     19 2 
    23     18     20 2 
    24     18     21 1 
    25     22     23 ar
    26     22     27 ar
    27     23     24 ar
    28     24     25 ar
    29     25     26 ar
    30     26     27 ar
    31     26     28 1 
    32     28     29 1 
    33      1     30 1 
    34      3     31 1 
    35      8     32 1 
    36      9     33 1 
    37     11     34 1 
    38     13     35 1 
    39     15     36 1 
    40     16     37 1 
    41     21     38 1 
    42     21     39 1 
    43     21     40 1 
    44     23     41 1 
    45     24     42 1 
    46     25     43 1 
    47     27     44 1 
    48     29     45 1 
    49     29     46 1 
    50     29     47 1 
@<TRIPOS>SUBSTRUCTURE
     1 MOL1         1 MOLECULE 1 A  MOL 
# Molecule written by the XED library from Cresset
