@<TRIPOS>MOLECULE
23
    44     48      1
SMALL
USER_CHARGES
@<TRIPOS>ATOM
      1  N          90.2666   48.1240  266.3159 N.pl3     1 MOL1        0.0000
      2  C          91.6053   48.3302  266.6785 C.ar      1 MOL1        0.0000
      3  C          91.9655   49.5283  267.2824 C.ar      1 MOL1        0.0000
      4  C          93.2798   49.7880  267.6956 C.ar      1 MOL1        0.0000
      5  C          94.2675   48.7692  267.5233 C.ar      1 MOL1        0.0000
      6  C          93.8901   47.5291  266.9246 C.ar      1 MOL1        0.0000
      7  C          92.5604   47.3362  266.4924 C.ar      1 MOL1        0.0000
      8  C          93.5816   51.0865  268.3410 C.ar      1 MOL1        0.0000
      9  C          94.5539   51.9289  267.7999 C.ar      1 MOL1        0.0000
     10  C          94.8419   53.1599  268.3769 C.ar      1 MOL1        0.0000
     11  C          94.1340   53.5695  269.5200 C.ar      1 MOL1        0.0000
     12  C          93.1794   52.6828  270.0955 C.ar      1 MOL1        0.0000
     13  C          92.8885   51.4503  269.4975 C.ar      1 MOL1        0.0000
     14  C          94.1379   54.7246  270.3296 C.ar      1 MOL1        0.0000
     15  C          93.3231   54.5023  271.3969 C.ar      1 MOL1        0.0000
     16  N          92.7270   53.2828  271.2572 N.pl3     1 MOL1        0.0000
     17  C          91.8143   52.7068  272.2360 C.3       1 MOL1        0.0000
     18  N          94.7937   46.5216  266.7799 N.ar      1 MOL1        0.0000
     19  C          96.0626   46.7418  267.2021 C.ar      1 MOL1        0.0000
     20  C          96.4461   47.9561  267.7602 C.ar      1 MOL1        0.0000
     21  N          95.5561   48.9613  267.9464 N.ar      1 MOL1        0.0000
     22  C          89.7286   47.3554  265.2768 C.ar      1 MOL1        0.0000
     23  C          90.4324   47.1276  264.0879 C.ar      1 MOL1        0.0000
     24  N          89.9168   46.4329  263.0385 N.ar      1 MOL1        0.0000
     25  C          88.6627   45.9292  263.1762 C.ar      1 MOL1        0.0000
     26  C          87.8956   46.1024  264.3286 C.ar      1 MOL1        0.0000
     27  C          88.4329   46.8391  265.3862 C.ar      1 MOL1        0.0000
     28  H          89.5840   48.5534  266.9215 H         1 MOL1        0.0000
     29  H          91.2103   50.2872  267.4331 H         1 MOL1        0.0000
     30  H          92.2824   46.3904  266.0527 H         1 MOL1        0.0000
     31  H          95.0948   51.6267  266.9153 H         1 MOL1        0.0000
     32  H          95.5936   53.8009  267.9420 H         1 MOL1        0.0000
     33  H          92.1679   50.7900  269.9332 H         1 MOL1        0.0000
     34  H          94.7495   55.6177  270.1966 H         1 MOL1        0.0000
     35  H          93.1003   55.1251  272.2562 H         1 MOL1        0.0000
     36  H          90.8685   52.4626  271.7679 H         1 MOL1        0.0000
     37  H          91.6486   53.4244  273.0386 H         1 MOL1        0.0000
     38  H          92.2600   51.8084  272.6499 H         1 MOL1        0.0000
     39  H          96.7703   45.9439  267.0454 H         1 MOL1        0.0000
     40  H          97.4696   48.1484  268.0483 H         1 MOL1        0.0000
     41  H          91.4251   47.5215  263.9542 H         1 MOL1        0.0000
     42  H          88.2698   45.3722  262.3400 H         1 MOL1        0.0000
     43  H          86.9082   45.6692  264.4069 H         1 MOL1        0.0000
     44  H          87.8553   46.9873  266.2876 H         1 MOL1        0.0000
@<TRIPOS>BOND
     1      1      2 1 
     2      1     22 1 
     3      2      3 ar
     4      2      7 ar
     5      3      4 ar
     6      4      5 ar
     7      4      8 1 
     8      5      6 ar
     9      5     21 ar
    10      6      7 ar
    11      6     18 ar
    12      8      9 ar
    13      8     13 ar
    14      9     10 ar
    15     10     11 ar
    16     11     12 ar
    17     11     14 ar
    18     12     13 ar
    19     12     16 ar
    20     14     15 ar
    21     15     16 ar
    22     16     17 1 
    23     18     19 ar
    24     19     20 ar
    25     20     21 ar
    26     22     23 ar
    27     22     27 ar
    28     23     24 ar
    29     24     25 ar
    30     25     26 ar
    31     26     27 ar
    32      1     28 1 
    33      3     29 1 
    34      7     30 1 
    35      9     31 1 
    36     10     32 1 
    37     13     33 1 
    38     14     34 1 
    39     15     35 1 
    40     17     36 1 
    41     17     37 1 
    42     17     38 1 
    43     19     39 1 
    44     20     40 1 
    45     23     41 1 
    46     25     42 1 
    47     26     43 1 
    48     27     44 1 
@<TRIPOS>SUBSTRUCTURE
     1 MOL1         1 MOLECULE 1 A  MOL 
# Molecule written by the XED library from Cresset
