@<TRIPOS>MOLECULE
24
    46     50      1
SMALL
USER_CHARGES
@<TRIPOS>ATOM
      1  N          94.7934   46.5310  266.7559 N.ar      1 MOL1        0.0000
      2  N          95.5582   48.9639  267.9334 N.ar      1 MOL1        0.0000
      3  C          96.4466   47.9569  267.7437 C.ar      1 MOL1        0.0000
      4  C          96.0618   46.7455  267.1837 C.ar      1 MOL1        0.0000
      5  C          94.2697   48.7791  267.5052 C.ar      1 MOL1        0.0000
      6  C          93.8901   47.5407  266.8989 C.ar      1 MOL1        0.0000
      7  C          92.5600   47.3451  266.4594 C.ar      1 MOL1        0.0000
      8  C          91.6063   48.3396  266.6555 C.ar      1 MOL1        0.0000
      9  C          91.9699   49.5311  267.2767 C.ar      1 MOL1        0.0000
     10  C          93.2841   49.7958  267.6804 C.ar      1 MOL1        0.0000
     11  C          93.5907   51.0925  268.3264 C.ar      1 MOL1        0.0000
     12  N          90.2614   48.1538  266.3036 N.pl3     1 MOL1        0.0000
     13  C          94.5668   51.9472  267.7977 C.ar      1 MOL1        0.0000
     14  C          94.8663   53.1821  268.3740 C.ar      1 MOL1        0.0000
     15  C          92.8923   51.4433  269.4840 C.ar      1 MOL1        0.0000
     16  C          93.2012   52.6678  270.0771 C.ar      1 MOL1        0.0000
     17  C          94.1512   53.5677  269.5161 C.ar      1 MOL1        0.0000
     18  C          94.1492   54.7274  270.3470 C.ar      1 MOL1        0.0000
     19  C          93.2774   54.4889  271.3839 C.ar      1 MOL1        0.0000
     20  N          92.7264   53.2453  271.2435 N.pl3     1 MOL1        0.0000
     21  C          91.8100   52.6331  272.1856 C.3       1 MOL1        0.0000
     22  C          89.6457   47.3771  265.3001 C.ar      1 MOL1        0.0000
     23  C          90.3572   47.0310  264.1425 C.ar      1 MOL1        0.0000
     24  C          89.7478   46.3118  263.1147 C.ar      1 MOL1        0.0000
     25  C          88.4149   45.9293  263.2275 C.ar      1 MOL1        0.0000
     26  C          87.6884   46.2695  264.3653 C.ar      1 MOL1        0.0000
     27  C          88.2903   46.9920  265.4020 C.ar      1 MOL1        0.0000
     28  C          87.4679   47.3024  266.5683 C.1       1 MOL1        0.0000
     29  N          86.8158   47.5543  267.4897 N.1       1 MOL1        0.0000
     30  H          97.4675   48.1440  268.0431 H         1 MOL1        0.0000
     31  H          96.7682   45.9462  267.0195 H         1 MOL1        0.0000
     32  H          92.2766   46.3948  266.0294 H         1 MOL1        0.0000
     33  H          91.2125   50.2847  267.4445 H         1 MOL1        0.0000
     34  H          89.6053   48.6279  266.9086 H         1 MOL1        0.0000
     35  H          95.0978   51.6559  266.8992 H         1 MOL1        0.0000
     36  H          95.6195   53.8279  267.9323 H         1 MOL1        0.0000
     37  H          92.1459   50.7815  269.9121 H         1 MOL1        0.0000
     38  H          94.7662   55.6216  270.2424 H         1 MOL1        0.0000
     39  H          93.0084   55.0959  272.2349 H         1 MOL1        0.0000
     40  H          91.6210   53.3091  273.0208 H         1 MOL1        0.0000
     41  H          92.2505   51.7171  272.5757 H         1 MOL1        0.0000
     42  H          90.8739   52.3970  271.6834 H         1 MOL1        0.0000
     43  H          91.3873   47.3281  264.0267 H         1 MOL1        0.0000
     44  H          90.3077   46.0365  262.2339 H         1 MOL1        0.0000
     45  H          87.9440   45.3507  262.4475 H         1 MOL1        0.0000
     46  H          86.6579   45.9419  264.4385 H         1 MOL1        0.0000
@<TRIPOS>BOND
     1      1      4 ar
     2      1      6 ar
     3      2      3 ar
     4      2      5 ar
     5      3      4 ar
     6      5      6 ar
     7      5     10 ar
     8      6      7 ar
     9      7      8 ar
    10      8      9 ar
    11      8     12 1 
    12      9     10 ar
    13     10     11 1 
    14     11     13 ar
    15     11     15 ar
    16     12     22 1 
    17     13     14 ar
    18     14     17 ar
    19     15     16 ar
    20     16     17 ar
    21     16     20 ar
    22     17     18 ar
    23     18     19 ar
    24     19     20 ar
    25     20     21 1 
    26     22     23 ar
    27     22     27 ar
    28     23     24 ar
    29     24     25 ar
    30     25     26 ar
    31     26     27 ar
    32     27     28 1 
    33     28     29 3 
    34      3     30 1 
    35      4     31 1 
    36      7     32 1 
    37      9     33 1 
    38     12     34 1 
    39     13     35 1 
    40     14     36 1 
    41     15     37 1 
    42     18     38 1 
    43     19     39 1 
    44     21     40 1 
    45     21     41 1 
    46     21     42 1 
    47     23     43 1 
    48     24     44 1 
    49     25     45 1 
    50     26     46 1 
@<TRIPOS>SUBSTRUCTURE
     1 MOL1         1 MOLECULE 1 A  MOL 
# Molecule written by the XED library from Cresset
