@<TRIPOS>MOLECULE
29
    51     55      1
SMALL
USER_CHARGES
@<TRIPOS>ATOM
      1  N          90.2429   48.1499  266.3259 N.pl3     1 MOL1        0.0000
      2  C          91.5915   48.3463  266.6440 C.ar      1 MOL1        0.0000
      3  C          91.9574   49.5395  267.2559 C.ar      1 MOL1        0.0000
      4  C          93.2671   49.7858  267.6848 C.ar      1 MOL1        0.0000
      5  C          94.2480   48.7609  267.5164 C.ar      1 MOL1        0.0000
      6  C          93.8706   47.5246  266.9023 C.ar      1 MOL1        0.0000
      7  C          92.5420   47.3500  266.4405 C.ar      1 MOL1        0.0000
      8  C          93.5621   51.0725  268.3476 C.ar      1 MOL1        0.0000
      9  C          94.5377   51.9183  267.8084 C.ar      1 MOL1        0.0000
     10  C          94.8189   53.1557  268.3917 C.ar      1 MOL1        0.0000
     11  C          94.1002   53.5562  269.5191 C.ar      1 MOL1        0.0000
     12  C          93.1598   52.6544  270.0934 C.ar      1 MOL1        0.0000
     13  C          92.8672   51.4224  269.5078 C.ar      1 MOL1        0.0000
     14  C          94.1039   54.7259  270.3251 C.ar      1 MOL1        0.0000
     15  C          93.3196   54.4659  271.4136 C.ar      1 MOL1        0.0000
     16  N          92.6997   53.2477  271.2657 N.pl3     1 MOL1        0.0000
     17  C          91.7777   52.6682  272.2304 C.3       1 MOL1        0.0000
     18  N          94.7782   46.5125  266.7757 N.ar      1 MOL1        0.0000
     19  C          96.0421   46.7292  267.2110 C.ar      1 MOL1        0.0000
     20  C          96.4256   47.9449  267.7635 C.ar      1 MOL1        0.0000
     21  N          95.5326   48.9464  267.9520 N.ar      1 MOL1        0.0000
     22  C          89.6492   47.3982  265.3040 C.ar      1 MOL1        0.0000
     23  C          88.4421   46.7054  265.5047 C.ar      1 MOL1        0.0000
     24  C          87.8175   46.0683  264.4281 C.ar      1 MOL1        0.0000
     25  C          88.3808   46.1261  263.1569 C.ar      1 MOL1        0.0000
     26  C          89.5836   46.7997  262.9557 C.ar      1 MOL1        0.0000
     27  C          90.2205   47.4179  264.0292 C.ar      1 MOL1        0.0000
     28  S          87.7197   46.6216  267.1428 S.3       1 MOL1        0.0000
     29  C          88.7306   45.3939  268.1466 C.3       1 MOL1        0.0000
     30  O          87.9054   47.9440  267.7429 O.2       1 MOL1        0.0000
     31  O          86.3737   46.0712  266.9701 O.2       1 MOL1        0.0000
     32  H          89.5840   48.5333  266.9901 H         1 MOL1        0.0000
     33  H          91.2097   50.3066  267.4086 H         1 MOL1        0.0000
     34  H          92.2450   46.4152  265.9896 H         1 MOL1        0.0000
     35  H          95.0846   51.6073  266.9221 H         1 MOL1        0.0000
     36  H          95.5694   53.7888  267.9491 H         1 MOL1        0.0000
     37  H          92.1532   50.7460  269.9468 H         1 MOL1        0.0000
     38  H          94.7104   55.6146  270.1889 H         1 MOL1        0.0000
     39  H          93.1476   55.0537  272.3082 H         1 MOL1        0.0000
     40  H          92.2250   51.7647  272.6332 H         1 MOL1        0.0000
     41  H          90.8371   52.4249  271.7437 H         1 MOL1        0.0000
     42  H          91.6020   53.3826  273.0374 H         1 MOL1        0.0000
     43  H          96.7605   45.9327  267.0669 H         1 MOL1        0.0000
     44  H          97.4448   48.1466  268.0543 H         1 MOL1        0.0000
     45  H          86.8897   45.5275  264.5487 H         1 MOL1        0.0000
     46  H          87.8747   45.6506  262.3311 H         1 MOL1        0.0000
     47  H          90.0062   46.8648  261.9658 H         1 MOL1        0.0000
     48  H          91.1366   47.9651  263.8709 H         1 MOL1        0.0000
     49  H          88.2859   45.3378  269.1376 H         1 MOL1        0.0000
     50  H          89.7578   45.7535  268.2181 H         1 MOL1        0.0000
     51  H          88.7027   44.4150  267.6714 H         1 MOL1        0.0000
@<TRIPOS>BOND
     1      1      2 1 
     2      1     22 1 
     3      2      3 ar
     4      2      7 ar
     5      3      4 ar
     6      4      5 ar
     7      4      8 1 
     8      5      6 ar
     9      5     21 ar
    10      6      7 ar
    11      6     18 ar
    12      8      9 ar
    13      8     13 ar
    14      9     10 ar
    15     10     11 ar
    16     11     12 ar
    17     11     14 ar
    18     12     13 ar
    19     12     16 ar
    20     14     15 ar
    21     15     16 ar
    22     16     17 1 
    23     18     19 ar
    24     19     20 ar
    25     20     21 ar
    26     22     23 ar
    27     22     27 ar
    28     23     24 ar
    29     23     28 1 
    30     24     25 ar
    31     25     26 ar
    32     26     27 ar
    33     28     29 1 
    34     28     30 2 
    35     28     31 2 
    36      1     32 1 
    37      3     33 1 
    38      7     34 1 
    39      9     35 1 
    40     10     36 1 
    41     13     37 1 
    42     14     38 1 
    43     15     39 1 
    44     17     40 1 
    45     17     41 1 
    46     17     42 1 
    47     19     43 1 
    48     20     44 1 
    49     24     45 1 
    50     25     46 1 
    51     26     47 1 
    52     27     48 1 
    53     29     49 1 
    54     29     50 1 
    55     29     51 1 
@<TRIPOS>SUBSTRUCTURE
     1 MOL1         1 MOLECULE 1 A  MOL 
# Molecule written by the XED library from Cresset
