@<TRIPOS>MOLECULE
30
    48     52      1
SMALL
USER_CHARGES
@<TRIPOS>ATOM
      1  N          90.3246   48.2158  265.9106 N.pl3     1 MOL1        0.0000
      2  C          91.6410   48.3483  266.3682 C.ar      1 MOL1        0.0000
      3  C          91.9415   49.5214  267.0589 C.ar      1 MOL1        0.0000
      4  C          93.1916   49.7577  267.6268 C.ar      1 MOL1        0.0000
      5  C          94.2090   48.7633  267.4940 C.ar      1 MOL1        0.0000
      6  C          93.8920   47.5406  266.8142 C.ar      1 MOL1        0.0000
      7  C          92.6020   47.3493  266.2505 C.ar      1 MOL1        0.0000
      8  C          93.3887   51.0078  268.4028 C.ar      1 MOL1        0.0000
      9  C          94.3856   51.9191  268.0632 C.ar      1 MOL1        0.0000
     10  C          94.5800   53.0959  268.7844 C.ar      1 MOL1        0.0000
     11  C          93.7588   53.3624  269.8875 C.ar      1 MOL1        0.0000
     12  C          92.7502   52.4132  270.2359 C.ar      1 MOL1        0.0000
     13  C          92.5445   51.2472  269.4912 C.ar      1 MOL1        0.0000
     14  C          93.6590   54.4296  270.8316 C.ar      1 MOL1        0.0000
     15  C          92.6607   54.0993  271.7192 C.ar      1 MOL1        0.0000
     16  N          92.1109   52.8876  271.3697 N.pl3     1 MOL1        0.0000
     17  N          94.8307   46.5542  266.6953 N.ar      1 MOL1        0.0000
     18  C          96.0576   46.7723  267.2282 C.ar      1 MOL1        0.0000
     19  C          96.3687   47.9683  267.8707 C.ar      1 MOL1        0.0000
     20  N          95.4524   48.9489  268.0268 N.ar      1 MOL1        0.0000
     21  C          91.0015   52.2516  272.0349 C.3       1 MOL1        0.0000
     22  C          89.6285   47.2718  265.1312 C.ar      1 MOL1        0.0000
     23  C          90.0658   46.7271  263.9099 C.ar      1 MOL1        0.0000
     24  N          89.2897   45.8581  263.1888 N.ar      1 MOL1        0.0000
     25  C          88.0679   45.5254  263.6665 C.ar      1 MOL1        0.0000
     26  C          87.5646   46.0381  264.8536 C.ar      1 MOL1        0.0000
     27  C          88.3537   46.9259  265.5834 C.ar      1 MOL1        0.0000
     28  O          91.2814   47.0908  263.3524 O.3       1 MOL1        0.0000
     29  C          91.5717   46.7276  261.9951 C.3       1 MOL1        0.0000
     30  H          89.7054   48.8989  266.3314 H         1 MOL1        0.0000
     31  H          91.1742   50.2745  267.1734 H         1 MOL1        0.0000
     32  H          92.3704   46.4313  265.7346 H         1 MOL1        0.0000
     33  H          95.0268   51.7132  267.2178 H         1 MOL1        0.0000
     34  H          95.3510   53.7912  268.4890 H         1 MOL1        0.0000
     35  H          91.7728   50.5401  269.7642 H         1 MOL1        0.0000
     36  H          94.2567   55.3288  270.8709 H         1 MOL1        0.0000
     37  H          92.2753   54.6395  272.5720 H         1 MOL1        0.0000
     38  H          96.7837   45.9839  267.1326 H         1 MOL1        0.0000
     39  H          97.3426   48.1426  268.2967 H         1 MOL1        0.0000
     40  H          91.2213   51.1967  272.1960 H         1 MOL1        0.0000
     41  H          90.0975   52.3505  271.4345 H         1 MOL1        0.0000
     42  H          90.8589   52.7256  273.0099 H         1 MOL1        0.0000
     43  H          87.4937   44.8108  263.0831 H         1 MOL1        0.0000
     44  H          86.5893   45.7382  265.2184 H         1 MOL1        0.0000
     45  H          87.9673   47.3300  266.5091 H         1 MOL1        0.0000
     46  H          92.5406   47.1233  261.6761 H         1 MOL1        0.0000
     47  H          90.8369   47.1301  261.2988 H         1 MOL1        0.0000
     48  H          91.5927   45.6483  261.8513 H         1 MOL1        0.0000
@<TRIPOS>BOND
     1      1      2 1 
     2      1     22 1 
     3      2      3 ar
     4      2      7 ar
     5      3      4 ar
     6      4      5 ar
     7      4      8 1 
     8      5      6 ar
     9      5     20 ar
    10      6      7 ar
    11      6     17 ar
    12      8      9 ar
    13      8     13 ar
    14      9     10 ar
    15     10     11 ar
    16     11     12 ar
    17     11     14 ar
    18     12     13 ar
    19     12     16 ar
    20     14     15 ar
    21     15     16 ar
    22     16     21 1 
    23     17     18 ar
    24     18     19 ar
    25     19     20 ar
    26     22     23 ar
    27     22     27 ar
    28     23     24 ar
    29     23     28 1 
    30     24     25 ar
    31     25     26 ar
    32     26     27 ar
    33     28     29 1 
    34      1     30 1 
    35      3     31 1 
    36      7     32 1 
    37      9     33 1 
    38     10     34 1 
    39     13     35 1 
    40     14     36 1 
    41     15     37 1 
    42     18     38 1 
    43     19     39 1 
    44     21     40 1 
    45     21     41 1 
    46     21     42 1 
    47     25     43 1 
    48     26     44 1 
    49     27     45 1 
    50     29     46 1 
    51     29     47 1 
    52     29     48 1 
@<TRIPOS>SUBSTRUCTURE
     1 MOL1         1 MOLECULE 1 A  MOL 
# Molecule written by the XED library from Cresset
