@<TRIPOS>MOLECULE
31
    48     52      1
SMALL
USER_CHARGES
@<TRIPOS>ATOM
      1  N          90.2734   48.1373  266.3119 N.pl3     1 MOL1        0.0000
      2  C          91.6117   48.3398  266.6726 C.ar      1 MOL1        0.0000
      3  C          91.9712   49.5358  267.2869 C.ar      1 MOL1        0.0000
      4  C          93.2859   49.8045  267.6862 C.ar      1 MOL1        0.0000
      5  C          92.5671   47.3483  266.4685 C.ar      1 MOL1        0.0000
      6  C          93.8944   47.5452  266.9039 C.ar      1 MOL1        0.0000
      7  C          94.2720   48.7853  267.5094 C.ar      1 MOL1        0.0000
      8  N          95.5613   48.9672  267.9330 N.ar      1 MOL1        0.0000
      9  C          96.4474   47.9577  267.7413 C.ar      1 MOL1        0.0000
     10  C          96.0603   46.7471  267.1804 C.ar      1 MOL1        0.0000
     11  N          94.7948   46.5347  266.7539 N.ar      1 MOL1        0.0000
     12  C          93.5898   51.1081  268.3324 C.ar      1 MOL1        0.0000
     13  C          94.5658   51.9591  267.8021 C.ar      1 MOL1        0.0000
     14  C          94.8582   53.1934  268.3841 C.ar      1 MOL1        0.0000
     15  C          92.8861   51.4597  269.4865 C.ar      1 MOL1        0.0000
     16  N          92.7260   53.2479  271.2608 N.pl3     1 MOL1        0.0000
     17  C          93.1982   52.6767  270.0937 C.ar      1 MOL1        0.0000
     18  C          94.1524   53.5738  269.5353 C.ar      1 MOL1        0.0000
     19  C          94.1575   54.7293  270.3755 C.ar      1 MOL1        0.0000
     20  C          93.3427   54.4594  271.4430 C.ar      1 MOL1        0.0000
     21  C          91.7409   52.6665  272.1542 C.3       1 MOL1        0.0000
     22  C          90.4241   47.1199  264.0974 C.ar      1 MOL1        0.0000
     23  C          89.7187   47.3508  265.2862 C.ar      1 MOL1        0.0000
     24  C          88.4205   46.8190  265.4083 C.ar      1 MOL1        0.0000
     25  C          87.8923   46.0966  264.3222 C.ar      1 MOL1        0.0000
     26  C          88.6643   45.9320  263.1722 C.ar      1 MOL1        0.0000
     27  N          89.9182   46.4295  263.0460 N.ar      1 MOL1        0.0000
     28  O          87.7289   47.0297  266.5905 O.3       1 MOL1        0.0000
     29  C          86.6417   46.1641  266.9159 C.3       1 MOL1        0.0000
     30  H          89.5868   48.6125  266.8810 H         1 MOL1        0.0000
     31  H          91.2113   50.2874  267.4492 H         1 MOL1        0.0000
     32  H          92.2845   46.4012  266.0294 H         1 MOL1        0.0000
     33  H          97.4673   48.1422  268.0436 H         1 MOL1        0.0000
     34  H          96.7683   45.9465  267.0190 H         1 MOL1        0.0000
     35  H          95.0959   51.6639  266.9069 H         1 MOL1        0.0000
     36  H          95.6099   53.8354  267.9427 H         1 MOL1        0.0000
     37  H          92.1435   50.7994  269.9124 H         1 MOL1        0.0000
     38  H          94.7478   55.6229  270.2556 H         1 MOL1        0.0000
     39  H          93.1309   55.0547  272.3177 H         1 MOL1        0.0000
     40  H          92.1012   51.7055  272.5204 H         1 MOL1        0.0000
     41  H          90.8126   52.5158  271.6044 H         1 MOL1        0.0000
     42  H          91.5524   53.3252  273.0017 H         1 MOL1        0.0000
     43  H          91.4231   47.5030  263.9698 H         1 MOL1        0.0000
     44  H          86.9039   45.6606  264.3509 H         1 MOL1        0.0000
     45  H          88.2760   45.3830  262.3272 H         1 MOL1        0.0000
     46  H          86.2357   46.4597  267.8831 H         1 MOL1        0.0000
     47  H          86.9586   45.1221  266.9987 H         1 MOL1        0.0000
     48  H          85.8268   46.2288  266.1940 H         1 MOL1        0.0000
@<TRIPOS>BOND
     1      1      2 1 
     2      1     23 1 
     3      2      3 ar
     4      2      5 ar
     5      3      4 ar
     6      4      7 ar
     7      4     12 1 
     8      5      6 ar
     9      6      7 ar
    10      6     11 ar
    11      7      8 ar
    12      8      9 ar
    13      9     10 ar
    14     10     11 ar
    15     12     13 ar
    16     12     15 ar
    17     13     14 ar
    18     14     18 ar
    19     15     17 ar
    20     16     17 ar
    21     16     20 ar
    22     16     21 1 
    23     17     18 ar
    24     18     19 ar
    25     19     20 ar
    26     22     23 ar
    27     22     27 ar
    28     23     24 ar
    29     24     25 ar
    30     24     28 1 
    31     25     26 ar
    32     26     27 ar
    33     28     29 1 
    34      1     30 1 
    35      3     31 1 
    36      5     32 1 
    37      9     33 1 
    38     10     34 1 
    39     13     35 1 
    40     14     36 1 
    41     15     37 1 
    42     19     38 1 
    43     20     39 1 
    44     21     40 1 
    45     21     41 1 
    46     21     42 1 
    47     22     43 1 
    48     25     44 1 
    49     26     45 1 
    50     29     46 1 
    51     29     47 1 
    52     29     48 1 
@<TRIPOS>SUBSTRUCTURE
     1 MOL1         1 MOLECULE 1 A  MOL 
# Molecule written by the XED library from Cresset
