@<TRIPOS>MOLECULE
34
    48     52      1
SMALL
USER_CHARGES
@<TRIPOS>ATOM
      1  C          92.5675   47.3476  266.4818 C.ar      1 MOL1        0.0000
      2  C          91.6195   48.3446  266.6702 C.ar      1 MOL1        0.0000
      3  C          91.9774   49.5404  267.2822 C.ar      1 MOL1        0.0000
      4  C          93.2882   49.8046  267.6880 C.ar      1 MOL1        0.0000
      5  C          94.2739   48.7854  267.5113 C.ar      1 MOL1        0.0000
      6  C          93.8948   47.5437  266.9102 C.ar      1 MOL1        0.0000
      7  N          94.7936   46.5330  266.7588 N.ar      1 MOL1        0.0000
      8  N          95.5623   48.9682  267.9318 N.ar      1 MOL1        0.0000
      9  C          96.4466   47.9594  267.7367 C.ar      1 MOL1        0.0000
     10  C          96.0613   46.7461  267.1800 C.ar      1 MOL1        0.0000
     11  N          90.2825   48.1494  266.3000 N.pl3     1 MOL1        0.0000
     12  C          93.5910   51.1031  268.3371 C.ar      1 MOL1        0.0000
     13  C          94.5701   51.9487  267.7934 C.ar      1 MOL1        0.0000
     14  C          94.8764   53.1831  268.3627 C.ar      1 MOL1        0.0000
     15  C          94.1738   53.5765  269.5033 C.ar      1 MOL1        0.0000
     16  C          93.2106   52.6774  270.0808 C.ar      1 MOL1        0.0000
     17  C          92.8955   51.4555  269.4914 C.ar      1 MOL1        0.0000
     18  C          94.1940   54.7417  270.3236 C.ar      1 MOL1        0.0000
     19  C          93.3211   54.5038  271.3418 C.ar      1 MOL1        0.0000
     20  N          92.7600   53.2789  271.2413 N.pl3     1 MOL1        0.0000
     21  C          89.7058   47.3516  265.2944 C.ar      1 MOL1        0.0000
     22  C          91.8506   52.7297  272.2448 C.3       1 MOL1        0.0000
     23  C          88.4003   46.8132  265.3997 C.ar      1 MOL1        0.0000
     24  C          87.8903   46.1026  264.3004 C.ar      1 MOL1        0.0000
     25  C          88.6717   45.9405  263.1626 C.ar      1 MOL1        0.0000
     26  N          89.9225   46.4384  263.0456 N.ar      1 MOL1        0.0000
     27  C          90.4118   47.1270  264.1049 C.ar      1 MOL1        0.0000
     28  C          87.5461   46.9593  266.6443 C.2       1 MOL1        0.0000
     29  N          86.6807   45.9742  266.8909 N.am      1 MOL1        0.0000
     30  O          87.6482   47.9220  267.4000 O.2       1 MOL1        0.0000
     31  H          92.2748   46.4011  266.0568 H         1 MOL1        0.0000
     32  H          91.2199   50.2936  267.4430 H         1 MOL1        0.0000
     33  H          97.4656   48.1565  268.0267 H         1 MOL1        0.0000
     34  H          96.7640   45.9455  267.0078 H         1 MOL1        0.0000
     35  H          89.5926   48.5989  266.8874 H         1 MOL1        0.0000
     36  H          95.0905   51.6544  266.8946 H         1 MOL1        0.0000
     37  H          95.6297   53.8262  267.9199 H         1 MOL1        0.0000
     38  H          92.1403   50.8031  269.9237 H         1 MOL1        0.0000
     39  H          94.7911   55.6375  270.2450 H         1 MOL1        0.0000
     40  H          93.0724   55.1133  272.1872 H         1 MOL1        0.0000
     41  H          91.7082   53.4641  273.0433 H         1 MOL1        0.0000
     42  H          92.2985   51.8398  272.6818 H         1 MOL1        0.0000
     43  H          90.8892   52.5140  271.7870 H         1 MOL1        0.0000
     44  H          86.8976   45.6795  264.3121 H         1 MOL1        0.0000
     45  H          88.2724   45.3933  262.3292 H         1 MOL1        0.0000
     46  H          91.4048   47.5141  263.9802 H         1 MOL1        0.0000
     47  H          86.0899   46.0225  267.7060 H         1 MOL1        0.0000
     48  H          86.6017   45.1896  266.2549 H         1 MOL1        0.0000
@<TRIPOS>BOND
     1      1      2 ar
     2      1      6 ar
     3      2      3 ar
     4      2     11 1 
     5      3      4 ar
     6      4      5 ar
     7      4     12 1 
     8      5      6 ar
     9      5      8 ar
    10      6      7 ar
    11      7     10 ar
    12      8      9 ar
    13      9     10 ar
    14     11     21 1 
    15     12     13 ar
    16     12     17 ar
    17     13     14 ar
    18     14     15 ar
    19     15     16 ar
    20     15     18 ar
    21     16     17 ar
    22     16     20 ar
    23     18     19 ar
    24     19     20 ar
    25     20     22 1 
    26     21     23 ar
    27     21     27 ar
    28     23     24 ar
    29     23     28 1 
    30     24     25 ar
    31     25     26 ar
    32     26     27 ar
    33     28     29 am
    34     28     30 2 
    35      1     31 1 
    36      3     32 1 
    37      9     33 1 
    38     10     34 1 
    39     11     35 1 
    40     13     36 1 
    41     14     37 1 
    42     17     38 1 
    43     18     39 1 
    44     19     40 1 
    45     22     41 1 
    46     22     42 1 
    47     22     43 1 
    48     24     44 1 
    49     25     45 1 
    50     27     46 1 
    51     29     47 1 
    52     29     48 1 
@<TRIPOS>SUBSTRUCTURE
     1 MOL1         1 MOLECULE 1 A  MOL 
# Molecule written by the XED library from Cresset
