@<TRIPOS>MOLECULE
35
    50     54      1
SMALL
USER_CHARGES
@<TRIPOS>ATOM
      1  C          91.6086   48.3265  266.6693 C.ar      1 MOL1        0.0000
      2  C          91.9732   49.5289  267.2740 C.ar      1 MOL1        0.0000
      3  C          93.2849   49.7831  267.6765 C.ar      1 MOL1        0.0000
      4  C          94.2756   48.7716  267.5149 C.ar      1 MOL1        0.0000
      5  C          93.8941   47.5269  266.9163 C.ar      1 MOL1        0.0000
      6  C          92.5664   47.3356  266.4869 C.ar      1 MOL1        0.0000
      7  C          93.5944   51.0830  268.3284 C.ar      1 MOL1        0.0000
      8  C          92.9019   51.4420  269.4800 C.ar      1 MOL1        0.0000
      9  C          93.1886   52.6739  270.0653 C.ar      1 MOL1        0.0000
     10  C          94.1369   53.5702  269.4983 C.ar      1 MOL1        0.0000
     11  C          94.8396   53.1647  268.3583 C.ar      1 MOL1        0.0000
     12  C          94.5632   51.9211  267.7840 C.ar      1 MOL1        0.0000
     13  N          94.8011   46.5237  266.7692 N.ar      1 MOL1        0.0000
     14  C          96.0655   46.7425  267.1960 C.ar      1 MOL1        0.0000
     15  C          96.4524   47.9539  267.7595 C.ar      1 MOL1        0.0000
     16  N          95.5606   48.9571  267.9440 N.ar      1 MOL1        0.0000
     17  N          90.2742   48.1229  266.3119 N.pl3     1 MOL1        0.0000
     18  C          94.1551   54.7196  270.3381 C.ar      1 MOL1        0.0000
     19  C          93.2925   54.4888  271.3906 C.ar      1 MOL1        0.0000
     20  N          92.7215   53.2581  271.2261 N.pl3     1 MOL1        0.0000
     21  C          91.8085   52.6518  272.1779 C.3       1 MOL1        0.0000
     22  C          89.7147   47.3400  265.2872 C.ar      1 MOL1        0.0000
     23  C          88.4272   46.7998  265.4019 C.ar      1 MOL1        0.0000
     24  C          87.8901   46.0853  264.3199 C.ar      1 MOL1        0.0000
     25  C          88.6593   45.9358  263.1678 C.ar      1 MOL1        0.0000
     26  N          89.9101   46.4426  263.0385 N.ar      1 MOL1        0.0000
     27  C          90.4183   47.1199  264.0947 C.ar      1 MOL1        0.0000
     28  S          87.4704   46.8899  266.9209 S.3       1 MOL1        0.0000
     29  O          86.1418   46.3963  266.6721 O.2       1 MOL1        0.0000
     30  O          87.6670   48.2589  267.4823 O.2       1 MOL1        0.0000
     31  C          88.3758   45.6752  268.0372 C.3       1 MOL1        0.0000
     32  H          91.2142   50.2817  267.4378 H         1 MOL1        0.0000
     33  H          92.2918   46.3918  266.0429 H         1 MOL1        0.0000
     34  H          92.1734   50.7821  269.9162 H         1 MOL1        0.0000
     35  H          95.5918   53.7986  267.9326 H         1 MOL1        0.0000
     36  H          95.1026   51.6249  266.8951 H         1 MOL1        0.0000
     37  H          96.7742   45.9445  267.0407 H         1 MOL1        0.0000
     38  H          97.4746   48.1476  268.0493 H         1 MOL1        0.0000
     39  H          89.5809   48.6035  266.8760 H         1 MOL1        0.0000
     40  H          94.7866   55.6032  270.1906 H         1 MOL1        0.0000
     41  H          93.0402   55.0710  272.2767 H         1 MOL1        0.0000
     42  H          90.8575   52.4402  271.6716 H         1 MOL1        0.0000
     43  H          91.6483   53.3577  272.9998 H         1 MOL1        0.0000
     44  H          92.2609   51.7273  272.5708 H         1 MOL1        0.0000
     45  H          86.9053   45.6446  264.3755 H         1 MOL1        0.0000
     46  H          88.2754   45.3851  262.3251 H         1 MOL1        0.0000
     47  H          91.4087   47.5286  263.9693 H         1 MOL1        0.0000
     48  H          87.8581   45.6244  268.9917 H         1 MOL1        0.0000
     49  H          89.3988   46.0130  268.1794 H         1 MOL1        0.0000
     50  H          88.3595   44.6958  267.5571 H         1 MOL1        0.0000
@<TRIPOS>BOND
     1      1      2 ar
     2      1      6 ar
     3      1     17 1 
     4      2      3 ar
     5      3      4 ar
     6      3      7 1 
     7      4      5 ar
     8      4     16 ar
     9      5      6 ar
    10      5     13 ar
    11      7      8 ar
    12      7     12 ar
    13      8      9 ar
    14      9     10 ar
    15      9     20 ar
    16     10     11 ar
    17     10     18 ar
    18     11     12 ar
    19     13     14 ar
    20     14     15 ar
    21     15     16 ar
    22     17     22 1 
    23     18     19 ar
    24     19     20 ar
    25     20     21 1 
    26     22     23 ar
    27     22     27 ar
    28     23     24 ar
    29     23     28 1 
    30     24     25 ar
    31     25     26 ar
    32     26     27 ar
    33     28     29 2 
    34     28     30 2 
    35     28     31 1 
    36      2     32 1 
    37      6     33 1 
    38      8     34 1 
    39     11     35 1 
    40     12     36 1 
    41     14     37 1 
    42     15     38 1 
    43     17     39 1 
    44     18     40 1 
    45     19     41 1 
    46     21     42 1 
    47     21     43 1 
    48     21     44 1 
    49     24     45 1 
    50     25     46 1 
    51     27     47 1 
    52     31     48 1 
    53     31     49 1 
    54     31     50 1 
@<TRIPOS>SUBSTRUCTURE
     1 MOL1         1 MOLECULE 1 A  MOL 
# Molecule written by the XED library from Cresset
