@<TRIPOS>MOLECULE
36
    53     57      1
SMALL
USER_CHARGES
@<TRIPOS>ATOM
      1  C          92.5019   47.4809  266.5012 C.ar      1 MOL1        0.0000
      2  C          91.4857   48.4054  266.7703 C.ar      1 MOL1        0.0000
      3  C          91.8311   49.6033  267.4005 C.ar      1 MOL1        0.0000
      4  C          93.1329   49.9008  267.8028 C.ar      1 MOL1        0.0000
      5  C          93.8203   47.7090  266.9243 C.ar      1 MOL1        0.0000
      6  C          94.1662   48.9379  267.5838 C.ar      1 MOL1        0.0000
      7  N          95.4395   49.1394  268.0247 N.ar      1 MOL1        0.0000
      8  C          96.3424   48.1461  267.8444 C.ar      1 MOL1        0.0000
      9  C          96.0073   46.9541  267.2235 C.ar      1 MOL1        0.0000
     10  N          94.7573   46.7424  266.7458 N.ar      1 MOL1        0.0000
     11  C          93.3550   51.1745  268.5297 C.ar      1 MOL1        0.0000
     12  C          94.3019   52.0919  268.1026 C.ar      1 MOL1        0.0000
     13  C          94.5054   53.3019  268.7680 C.ar      1 MOL1        0.0000
     14  C          92.5738   51.4295  269.6694 C.ar      1 MOL1        0.0000
     15  C          92.8404   52.5915  270.3967 C.ar      1 MOL1        0.0000
     16  C          93.7750   53.5611  269.9435 C.ar      1 MOL1        0.0000
     17  C          93.7328   54.6344  270.8820 C.ar      1 MOL1        0.0000
     18  C          92.9093   54.2418  271.9260 C.ar      1 MOL1        0.0000
     19  N          92.3458   53.0191  271.6075 N.pl3     1 MOL1        0.0000
     20  N          90.1524   48.0937  266.3997 N.pl3     1 MOL1        0.0000
     21  C          91.3984   52.2974  272.4351 C.3       1 MOL1        0.0000
     22  C          89.8025   47.1713  265.4107 C.ar      1 MOL1        0.0000
     23  C          88.7064   46.2853  265.4708 C.ar      1 MOL1        0.0000
     24  C          88.3920   45.5465  264.3239 C.ar      1 MOL1        0.0000
     25  C          89.1630   45.7166  263.1759 C.ar      1 MOL1        0.0000
     26  N          90.3008   46.4328  263.1436 N.ar      1 MOL1        0.0000
     27  C          90.6083   47.1291  264.2614 C.ar      1 MOL1        0.0000
     28  S          87.7536   46.0522  266.9862 S.3       1 MOL1        0.0000
     29  O          87.6334   47.3703  267.6019 O.2       1 MOL1        0.0000
     30  O          86.5414   45.3174  266.6269 O.2       1 MOL1        0.0000
     31  C          88.7842   44.9495  268.1464 C.3       1 MOL1        0.0000
     32  C          89.0277   48.5933  267.1930 C.3       1 MOL1        0.0000
     33  H          92.2739   46.5354  266.0341 H         1 MOL1        0.0000
     34  H          91.0802   50.3370  267.6196 H         1 MOL1        0.0000
     35  H          97.3500   48.3260  268.1900 H         1 MOL1        0.0000
     36  H          96.7164   46.1615  267.0807 H         1 MOL1        0.0000
     37  H          94.8847   51.8876  267.2116 H         1 MOL1        0.0000
     38  H          95.2293   54.0106  268.4023 H         1 MOL1        0.0000
     39  H          91.8324   50.7201  269.9931 H         1 MOL1        0.0000
     40  H          94.2804   55.5661  270.8313 H         1 MOL1        0.0000
     41  H          92.6568   54.7230  272.8364 H         1 MOL1        0.0000
     42  H          91.2584   52.7970  273.3925 H         1 MOL1        0.0000
     43  H          91.7765   51.2904  272.6188 H         1 MOL1        0.0000
     44  H          90.4452   52.2301  271.9110 H         1 MOL1        0.0000
     45  H          87.6107   44.8283  264.3234 H         1 MOL1        0.0000
     46  H          88.8449   45.2396  262.2594 H         1 MOL1        0.0000
     47  H          91.4889   47.7368  264.2338 H         1 MOL1        0.0000
     48  H          88.2085   44.8033  269.0647 H         1 MOL1        0.0000
     49  H          89.7347   45.4322  268.3764 H         1 MOL1        0.0000
     50  H          88.9505   43.9840  267.6632 H         1 MOL1        0.0000
     51  H          88.8013   47.8870  268.0013 H         1 MOL1        0.0000
     52  H          88.1379   48.7100  266.5759 H         1 MOL1        0.0000
     53  H          89.2234   49.5809  267.6275 H         1 MOL1        0.0000
@<TRIPOS>BOND
     1      1      2 ar
     2      1      5 ar
     3      2      3 ar
     4      2     20 1 
     5      3      4 ar
     6      4      6 ar
     7      4     11 1 
     8      5      6 ar
     9      5     10 ar
    10      6      7 ar
    11      7      8 ar
    12      8      9 ar
    13      9     10 ar
    14     11     12 ar
    15     11     14 ar
    16     12     13 ar
    17     13     16 ar
    18     14     15 ar
    19     15     16 ar
    20     15     19 ar
    21     16     17 ar
    22     17     18 ar
    23     18     19 ar
    24     19     21 1 
    25     20     22 1 
    26     20     32 1 
    27     22     23 ar
    28     22     27 ar
    29     23     24 ar
    30     23     28 1 
    31     24     25 ar
    32     25     26 ar
    33     26     27 ar
    34     28     29 2 
    35     28     30 2 
    36     28     31 1 
    37      1     33 1 
    38      3     34 1 
    39      8     35 1 
    40      9     36 1 
    41     12     37 1 
    42     13     38 1 
    43     14     39 1 
    44     17     40 1 
    45     18     41 1 
    46     21     42 1 
    47     21     43 1 
    48     21     44 1 
    49     24     45 1 
    50     25     46 1 
    51     27     47 1 
    52     31     48 1 
    53     31     49 1 
    54     31     50 1 
    55     32     51 1 
    56     32     52 1 
    57     32     53 1 
@<TRIPOS>SUBSTRUCTURE
     1 MOL1         1 MOLECULE 1 A  MOL 
# Molecule written by the XED library from Cresset
