@<TRIPOS>MOLECULE
37
    62     67      1
SMALL
USER_CHARGES
@<TRIPOS>ATOM
      1  C          92.5682   47.3462  266.4833 C.ar      1 MOL1        0.0000
      2  C          91.6181   48.3452  266.6664 C.ar      1 MOL1        0.0000
      3  C          91.9789   49.5400  267.2763 C.ar      1 MOL1        0.0000
      4  C          93.2937   49.7963  267.6790 C.ar      1 MOL1        0.0000
      5  C          93.8967   47.5399  266.9140 C.ar      1 MOL1        0.0000
      6  C          94.2761   48.7809  267.5103 C.ar      1 MOL1        0.0000
      7  N          95.5636   48.9666  267.9329 N.ar      1 MOL1        0.0000
      8  C          96.4501   47.9585  267.7397 C.ar      1 MOL1        0.0000
      9  C          96.0608   46.7452  267.1831 C.ar      1 MOL1        0.0000
     10  N          94.7948   46.5277  266.7655 N.ar      1 MOL1        0.0000
     11  C          93.5976   51.0957  268.3217 C.ar      1 MOL1        0.0000
     12  N          90.2871   48.1511  266.2958 N.pl3     1 MOL1        0.0000
     13  C          94.5711   51.9448  267.7868 C.ar      1 MOL1        0.0000
     14  C          94.8615   53.1780  268.3682 C.ar      1 MOL1        0.0000
     15  C          92.8931   51.4384  269.4756 C.ar      1 MOL1        0.0000
     16  C          93.1961   52.6578  270.0710 C.ar      1 MOL1        0.0000
     17  C          94.1500   53.5596  269.5095 C.ar      1 MOL1        0.0000
     18  C          94.1496   54.7271  270.3451 C.ar      1 MOL1        0.0000
     19  C          93.2853   54.4571  271.3772 C.ar      1 MOL1        0.0000
     20  N          92.7215   53.2230  271.2345 N.pl3     1 MOL1        0.0000
     21  C          89.7168   47.3542  265.2854 C.ar      1 MOL1        0.0000
     22  C          88.4155   46.8174  265.3915 C.ar      1 MOL1        0.0000
     23  C          87.9008   46.1080  264.2919 C.ar      1 MOL1        0.0000
     24  C          88.6799   45.9426  263.1569 C.ar      1 MOL1        0.0000
     25  N          89.9312   46.4387  263.0407 N.ar      1 MOL1        0.0000
     26  C          90.4252   47.1278  264.0989 C.ar      1 MOL1        0.0000
     27  C          87.5601   46.9683  266.6297 C.2       1 MOL1        0.0000
     28  O          87.6700   47.9323  267.3876 O.2       1 MOL1        0.0000
     29  N          86.6670   45.9862  266.8167 N.am      1 MOL1        0.0000
     30  C          85.5963   45.9500  267.7902 C.3       1 MOL1        0.0000
     31  C          91.8041   52.6238  272.1857 C.3       1 MOL1        0.0000
     32  C          85.8697   44.9843  268.9505 C.3       1 MOL1        0.0000
     33  C          84.6496   44.8209  269.8728 C.3       1 MOL1        0.0000
     34  O          83.4889   44.4695  269.1236 O.3       1 MOL1        0.0000
     35  C          83.1249   45.4242  268.1288 C.3       1 MOL1        0.0000
     36  C          84.2584   45.6197  267.1140 C.3       1 MOL1        0.0000
     37  H          92.2770   46.3996  266.0578 H         1 MOL1        0.0000
     38  H          91.2242   50.2942  267.4384 H         1 MOL1        0.0000
     39  H          97.4700   48.1595  268.0271 H         1 MOL1        0.0000
     40  H          96.7659   45.9451  267.0116 H         1 MOL1        0.0000
     41  H          89.5946   48.5928  266.8897 H         1 MOL1        0.0000
     42  H          95.0958   51.6551  266.8938 H         1 MOL1        0.0000
     43  H          95.6155   53.8250  267.9346 H         1 MOL1        0.0000
     44  H          92.1478   50.7838  269.9041 H         1 MOL1        0.0000
     45  H          94.7390   55.6112  270.2761 H         1 MOL1        0.0000
     46  H          93.0455   55.0371  272.2307 H         1 MOL1        0.0000
     47  H          86.9050   45.6848  264.3020 H         1 MOL1        0.0000
     48  H          88.2773   45.3912  262.3250 H         1 MOL1        0.0000
     49  H          91.4139   47.5230  263.9796 H         1 MOL1        0.0000
     50  H          86.7305   45.1658  266.2195 H         1 MOL1        0.0000
     51  H          85.4687   46.9437  268.2348 H         1 MOL1        0.0000
     52  H          91.6215   53.3064  273.0147 H         1 MOL1        0.0000
     53  H          92.2473   51.7095  272.5766 H         1 MOL1        0.0000
     54  H          90.8673   52.3927  271.6850 H         1 MOL1        0.0000
     55  H          86.7428   45.3049  269.5229 H         1 MOL1        0.0000
     56  H          86.1061   44.0003  268.5380 H         1 MOL1        0.0000
     57  H          84.4589   45.7637  270.3907 H         1 MOL1        0.0000
     58  H          84.8389   44.0692  270.6375 H         1 MOL1        0.0000
     59  H          82.9089   46.3828  268.6064 H         1 MOL1        0.0000
     60  H          82.2144   45.0974  267.6290 H         1 MOL1        0.0000
     61  H          83.9940   46.3812  266.3802 H         1 MOL1        0.0000
     62  H          84.3720   44.6839  266.5609 H         1 MOL1        0.0000
@<TRIPOS>BOND
     1      1      2 ar
     2      1      5 ar
     3      2      3 ar
     4      2     12 1 
     5      3      4 ar
     6      4      6 ar
     7      4     11 1 
     8      5      6 ar
     9      5     10 ar
    10      6      7 ar
    11      7      8 ar
    12      8      9 ar
    13      9     10 ar
    14     11     13 ar
    15     11     15 ar
    16     12     21 1 
    17     13     14 ar
    18     14     17 ar
    19     15     16 ar
    20     16     17 ar
    21     16     20 ar
    22     17     18 ar
    23     18     19 ar
    24     19     20 ar
    25     20     31 1 
    26     21     22 ar
    27     21     26 ar
    28     22     23 ar
    29     22     27 1 
    30     23     24 ar
    31     24     25 ar
    32     25     26 ar
    33     27     28 2 
    34     27     29 am
    35     29     30 1 
    36     30     32 1 
    37     30     36 1 
    38     32     33 1 
    39     33     34 1 
    40     34     35 1 
    41     35     36 1 
    42      1     37 1 
    43      3     38 1 
    44      8     39 1 
    45      9     40 1 
    46     12     41 1 
    47     13     42 1 
    48     14     43 1 
    49     15     44 1 
    50     18     45 1 
    51     19     46 1 
    52     23     47 1 
    53     24     48 1 
    54     26     49 1 
    55     29     50 1 
    56     30     51 1 
    57     31     52 1 
    58     31     53 1 
    59     31     54 1 
    60     32     55 1 
    61     32     56 1 
    62     33     57 1 
    63     33     58 1 
    64     35     59 1 
    65     35     60 1 
    66     36     61 1 
    67     36     62 1 
@<TRIPOS>SUBSTRUCTURE
     1 MOL1         1 MOLECULE 1 A  MOL 
# Molecule written by the XED library from Cresset
