@<TRIPOS>MOLECULE
39
    45     48      1
SMALL
USER_CHARGES
@<TRIPOS>ATOM
      1  C          93.2802   49.7985  267.6875 C.ar      1 MOL1        0.0000
      2  C          92.5744   47.3376  266.4723 C.ar      1 MOL1        0.0000
      3  C          91.6199   48.3263  266.6804 C.ar      1 MOL1        0.0000
      4  C          91.9714   49.5220  267.2873 C.ar      1 MOL1        0.0000
      5  C          93.9019   47.5331  266.9251 C.ar      1 MOL1        0.0000
      6  C          94.2659   48.7775  267.5222 C.ar      1 MOL1        0.0000
      7  N          95.5666   48.9595  267.9454 N.ar      1 MOL1        0.0000
      8  C          96.4488   47.9549  267.7510 C.ar      1 MOL1        0.0000
      9  C          96.0765   46.7394  267.2041 C.ar      1 MOL1        0.0000
     10  N          94.7993   46.5295  266.7714 N.ar      1 MOL1        0.0000
     11  C          93.5961   51.1154  268.3351 C.ar      1 MOL1        0.0000
     12  C          94.5698   51.9449  267.8031 C.ar      1 MOL1        0.0000
     13  C          94.8585   53.1669  268.3850 C.ar      1 MOL1        0.0000
     14  C          94.1392   53.5776  269.5455 C.ar      1 MOL1        0.0000
     15  C          93.2374   52.7442  270.0633 C.ar      1 MOL1        0.0000
     16  C          92.9105   51.5224  269.5097 C.ar      1 MOL1        0.0000
     17  N          90.2895   48.1235  266.3187 N.pl3     1 MOL1        0.0000
     18  C          89.7108   47.3399  265.2871 C.ar      1 MOL1        0.0000
     19  C          90.4200   47.1068  264.0926 C.ar      1 MOL1        0.0000
     20  N          89.9177   46.4353  263.0435 N.ar      1 MOL1        0.0000
     21  C          88.6596   45.9305  263.1598 C.ar      1 MOL1        0.0000
     22  C          87.8887   46.0861  264.3126 C.ar      1 MOL1        0.0000
     23  C          88.4246   46.7965  265.3987 C.ar      1 MOL1        0.0000
     24  S          87.4849   46.9002  266.9304 S.3       1 MOL1        0.0000
     25  O          86.1214   46.3894  266.6610 O.2       1 MOL1        0.0000
     26  O          87.6704   48.2235  267.4846 O.2       1 MOL1        0.0000
     27  C          88.3749   45.6310  268.0078 C.3       1 MOL1        0.0000
     28  N          92.5599   53.1152  271.2532 N.pl3     1 MOL1        0.0000
     29  H          92.2846   46.3852  266.0479 H         1 MOL1        0.0000
     30  H          91.2071   50.2822  267.4406 H         1 MOL1        0.0000
     31  H          97.4762   48.1500  268.0508 H         1 MOL1        0.0000
     32  H          96.7765   45.9460  267.0392 H         1 MOL1        0.0000
     33  H          95.1122   51.6526  266.8983 H         1 MOL1        0.0000
     34  H          95.6095   53.8251  267.9555 H         1 MOL1        0.0000
     35  H          94.4033   54.5266  269.9861 H         1 MOL1        0.0000
     36  H          92.1768   50.8601  269.9347 H         1 MOL1        0.0000
     37  H          89.5718   48.6003  266.8710 H         1 MOL1        0.0000
     38  H          91.4072   47.5191  263.9725 H         1 MOL1        0.0000
     39  H          88.2712   45.3832  262.3244 H         1 MOL1        0.0000
     40  H          86.8931   45.6417  264.3768 H         1 MOL1        0.0000
     41  H          87.8403   45.5136  268.9559 H         1 MOL1        0.0000
     42  H          89.3890   45.9893  268.1771 H         1 MOL1        0.0000
     43  H          88.3862   44.6843  267.4915 H         1 MOL1        0.0000
     44  H          91.9435   52.4651  271.7202 H         1 MOL1        0.0000
     45  H          92.8326   53.9673  271.7255 H         1 MOL1        0.0000
@<TRIPOS>BOND
     1      1      4 ar
     2      1      6 ar
     3      1     11 1 
     4      2      3 ar
     5      2      5 ar
     6      3      4 ar
     7      3     17 1 
     8      5      6 ar
     9      5     10 ar
    10      6      7 ar
    11      7      8 ar
    12      8      9 ar
    13      9     10 ar
    14     11     12 ar
    15     11     16 ar
    16     12     13 ar
    17     13     14 ar
    18     14     15 ar
    19     15     16 ar
    20     15     28 1 
    21     17     18 1 
    22     18     19 ar
    23     18     23 ar
    24     19     20 ar
    25     20     21 ar
    26     21     22 ar
    27     22     23 ar
    28     23     24 1 
    29     24     25 2 
    30     24     26 2 
    31     24     27 1 
    32      2     29 1 
    33      4     30 1 
    34      8     31 1 
    35      9     32 1 
    36     12     33 1 
    37     13     34 1 
    38     14     35 1 
    39     16     36 1 
    40     17     37 1 
    41     19     38 1 
    42     21     39 1 
    43     22     40 1 
    44     27     41 1 
    45     27     42 1 
    46     27     43 1 
    47     28     44 1 
    48     28     45 1 
@<TRIPOS>SUBSTRUCTURE
     1 MOL1         1 MOLECULE 1 A  MOL 
# Molecule written by the XED library from Cresset
