@<TRIPOS>MOLECULE
41
    47     50      1
SMALL
USER_CHARGES
@<TRIPOS>ATOM
      1  C          93.2782   49.7896  267.6853 C.ar      1 MOL1        0.0000
      2  C          92.5645   47.3279  266.4843 C.ar      1 MOL1        0.0000
      3  C          91.6114   48.3242  266.6766 C.ar      1 MOL1        0.0000
      4  C          91.9687   49.5189  267.2815 C.ar      1 MOL1        0.0000
      5  C          93.8940   47.5285  266.9239 C.ar      1 MOL1        0.0000
      6  C          94.2716   48.7689  267.5195 C.ar      1 MOL1        0.0000
      7  N          95.5595   48.9594  267.9445 N.ar      1 MOL1        0.0000
      8  C          96.4507   47.9529  267.7597 C.ar      1 MOL1        0.0000
      9  C          96.0667   46.7376  267.2079 C.ar      1 MOL1        0.0000
     10  N          94.7985   46.5177  266.7833 N.ar      1 MOL1        0.0000
     11  C          93.5961   51.0950  268.3176 C.ar      1 MOL1        0.0000
     12  C          92.8354   51.5850  269.3805 C.ar      1 MOL1        0.0000
     13  C          93.1459   52.8020  269.9772 C.ar      1 MOL1        0.0000
     14  C          94.2185   53.5485  269.5128 C.ar      1 MOL1        0.0000
     15  C          94.9646   53.1033  268.4055 C.ar      1 MOL1        0.0000
     16  C          94.6620   51.8657  267.8407 C.ar      1 MOL1        0.0000
     17  N          90.2696   48.1131  266.3141 N.pl3     1 MOL1        0.0000
     18  C          89.7134   47.3365  265.2841 C.ar      1 MOL1        0.0000
     19  C          90.4132   47.1201  264.0930 C.ar      1 MOL1        0.0000
     20  N          89.9019   46.4455  263.0352 N.ar      1 MOL1        0.0000
     21  C          88.6551   45.9413  263.1596 C.ar      1 MOL1        0.0000
     22  C          87.8824   46.0848  264.3154 C.ar      1 MOL1        0.0000
     23  C          88.4203   46.7966  265.3977 C.ar      1 MOL1        0.0000
     24  S          87.4762   46.8845  266.9224 S.3       1 MOL1        0.0000
     25  O          86.1286   46.4001  266.6639 O.2       1 MOL1        0.0000
     26  O          87.6817   48.2276  267.4906 O.2       1 MOL1        0.0000
     27  C          88.3690   45.6249  268.0119 C.3       1 MOL1        0.0000
     28  O          95.9690   53.8069  267.7995 O.3       1 MOL1        0.0000
     29  C          96.3470   55.0729  268.3310 C.3       1 MOL1        0.0000
     30  F          97.3096   55.5398  267.5396 F         1 MOL1        0.0000
     31  F          95.3611   55.9453  268.3260 F         1 MOL1        0.0000
     32  F          96.7836   54.9621  269.5556 F         1 MOL1        0.0000
     33  H          92.2832   46.3844  266.0477 H         1 MOL1        0.0000
     34  H          91.2070   50.2776  267.4315 H         1 MOL1        0.0000
     35  H          97.4740   48.1497  268.0475 H         1 MOL1        0.0000
     36  H          96.7752   45.9403  267.0447 H         1 MOL1        0.0000
     37  H          91.9978   51.0151  269.7584 H         1 MOL1        0.0000
     38  H          92.5604   53.1755  270.8094 H         1 MOL1        0.0000
     39  H          94.4210   54.4921  269.9893 H         1 MOL1        0.0000
     40  H          95.2451   51.5271  266.9975 H         1 MOL1        0.0000
     41  H          89.5686   48.5877  266.8693 H         1 MOL1        0.0000
     42  H          91.4091   47.5207  263.9742 H         1 MOL1        0.0000
     43  H          88.2678   45.3844  262.3198 H         1 MOL1        0.0000
     44  H          86.9024   45.6345  264.3838 H         1 MOL1        0.0000
     45  H          87.8428   45.5077  268.9515 H         1 MOL1        0.0000
     46  H          89.3884   45.9738  268.1659 H         1 MOL1        0.0000
     47  H          88.3746   44.6716  267.4801 H         1 MOL1        0.0000
@<TRIPOS>BOND
     1      1      4 ar
     2      1      6 ar
     3      1     11 1 
     4      2      3 ar
     5      2      5 ar
     6      3      4 ar
     7      3     17 1 
     8      5      6 ar
     9      5     10 ar
    10      6      7 ar
    11      7      8 ar
    12      8      9 ar
    13      9     10 ar
    14     11     12 ar
    15     11     16 ar
    16     12     13 ar
    17     13     14 ar
    18     14     15 ar
    19     15     16 ar
    20     15     28 1 
    21     17     18 1 
    22     18     19 ar
    23     18     23 ar
    24     19     20 ar
    25     20     21 ar
    26     21     22 ar
    27     22     23 ar
    28     23     24 1 
    29     24     25 2 
    30     24     26 2 
    31     24     27 1 
    32     28     29 1 
    33     29     30 1 
    34     29     31 1 
    35     29     32 1 
    36      2     33 1 
    37      4     34 1 
    38      8     35 1 
    39      9     36 1 
    40     12     37 1 
    41     13     38 1 
    42     14     39 1 
    43     16     40 1 
    44     17     41 1 
    45     19     42 1 
    46     21     43 1 
    47     22     44 1 
    48     27     45 1 
    49     27     46 1 
    50     27     47 1 
@<TRIPOS>SUBSTRUCTURE
     1 MOL1         1 MOLECULE 1 A  MOL 
# Molecule written by the XED library from Cresset
