@<TRIPOS>MOLECULE
42
    47     50      1
SMALL
USER_CHARGES
@<TRIPOS>ATOM
      1  C          93.2875   49.7838  267.6770 C.ar      1 MOL1        0.0000
      2  C          92.5724   47.3125  266.4966 C.ar      1 MOL1        0.0000
      3  C          91.6143   48.3091  266.6745 C.ar      1 MOL1        0.0000
      4  C          91.9734   49.5126  267.2693 C.ar      1 MOL1        0.0000
      5  C          93.8983   47.5150  266.9402 C.ar      1 MOL1        0.0000
      6  C          94.2747   48.7631  267.5237 C.ar      1 MOL1        0.0000
      7  N          95.5632   48.9601  267.9552 N.ar      1 MOL1        0.0000
      8  C          96.4531   47.9523  267.7789 C.ar      1 MOL1        0.0000
      9  C          96.0721   46.7327  267.2263 C.ar      1 MOL1        0.0000
     10  N          94.8009   46.4988  266.8238 N.ar      1 MOL1        0.0000
     11  C          93.5911   51.0854  268.3137 C.ar      1 MOL1        0.0000
     12  C          92.8469   51.5645  269.4014 C.ar      1 MOL1        0.0000
     13  C          93.1400   52.7949  269.9867 C.ar      1 MOL1        0.0000
     14  C          94.6339   51.8738  267.8240 C.ar      1 MOL1        0.0000
     15  N          90.2801   48.1021  266.3129 N.pl3     1 MOL1        0.0000
     16  C          89.7132   47.3295  265.2851 C.ar      1 MOL1        0.0000
     17  C          90.4095   47.1212  264.0895 C.ar      1 MOL1        0.0000
     18  N          89.8943   46.4354  263.0351 N.ar      1 MOL1        0.0000
     19  C          88.6421   45.9295  263.1649 C.ar      1 MOL1        0.0000
     20  C          87.8835   46.0722  264.3231 C.ar      1 MOL1        0.0000
     21  C          88.4211   46.7936  265.3951 C.ar      1 MOL1        0.0000
     22  S          87.4795   46.9124  266.9240 S.3       1 MOL1        0.0000
     23  O          86.1188   46.4328  266.6652 O.2       1 MOL1        0.0000
     24  O          87.6945   48.2548  267.4760 O.2       1 MOL1        0.0000
     25  C          88.3552   45.6686  268.0255 C.3       1 MOL1        0.0000
     26  C          94.9298   53.1047  268.3962 C.ar      1 MOL1        0.0000
     27  C          94.2024   53.5588  269.5010 C.ar      1 MOL1        0.0000
     28  C          96.0833   55.7215  268.3802 C.3       1 MOL1        0.0000
     29  S          96.1817   54.0755  267.6506 S.3       1 MOL1        0.0000
     30  H          92.2931   46.3625  266.0674 H         1 MOL1        0.0000
     31  H          91.2162   50.2704  267.4062 H         1 MOL1        0.0000
     32  H          97.4741   48.1517  268.0664 H         1 MOL1        0.0000
     33  H          96.7829   45.9289  267.0901 H         1 MOL1        0.0000
     34  H          92.0296   50.9757  269.8042 H         1 MOL1        0.0000
     35  H          92.5765   53.1471  270.8375 H         1 MOL1        0.0000
     36  H          95.1927   51.5424  266.9621 H         1 MOL1        0.0000
     37  H          89.5863   48.5720  266.8822 H         1 MOL1        0.0000
     38  H          91.4058   47.5156  263.9586 H         1 MOL1        0.0000
     39  H          88.2563   45.3792  262.3224 H         1 MOL1        0.0000
     40  H          86.9089   45.6181  264.3929 H         1 MOL1        0.0000
     41  H          87.8313   45.6086  268.9799 H         1 MOL1        0.0000
     42  H          89.3842   45.9944  268.1685 H         1 MOL1        0.0000
     43  H          88.3348   44.7037  267.5294 H         1 MOL1        0.0000
     44  H          94.4208   54.5069  269.9694 H         1 MOL1        0.0000
     45  H          96.7764   56.3647  267.8329 H         1 MOL1        0.0000
     46  H          96.3260   55.6602  269.4465 H         1 MOL1        0.0000
     47  H          95.0813   56.1420  268.2849 H         1 MOL1        0.0000
@<TRIPOS>BOND
     1      1      4 ar
     2      1      6 ar
     3      1     11 1 
     4      2      3 ar
     5      2      5 ar
     6      3      4 ar
     7      3     15 1 
     8      5      6 ar
     9      5     10 ar
    10      6      7 ar
    11      7      8 ar
    12      8      9 ar
    13      9     10 ar
    14     11     12 ar
    15     11     14 ar
    16     12     13 ar
    17     13     27 ar
    18     14     26 ar
    19     15     16 1 
    20     16     17 ar
    21     16     21 ar
    22     17     18 ar
    23     18     19 ar
    24     19     20 ar
    25     20     21 ar
    26     21     22 1 
    27     22     23 2 
    28     22     24 2 
    29     22     25 1 
    30     26     27 ar
    31     26     29 1 
    32     28     29 1 
    33      2     30 1 
    34      4     31 1 
    35      8     32 1 
    36      9     33 1 
    37     12     34 1 
    38     13     35 1 
    39     14     36 1 
    40     15     37 1 
    41     17     38 1 
    42     19     39 1 
    43     20     40 1 
    44     25     41 1 
    45     25     42 1 
    46     25     43 1 
    47     27     44 1 
    48     28     45 1 
    49     28     46 1 
    50     28     47 1 
@<TRIPOS>SUBSTRUCTURE
     1 MOL1         1 MOLECULE 1 A  MOL 
# Molecule written by the XED library from Cresset
