@<TRIPOS>MOLECULE
43
    43     46      1
SMALL
USER_CHARGES
@<TRIPOS>ATOM
      1  C          93.2801   49.7948  267.6926 C.ar      1 MOL1        0.0000
      2  C          92.5697   47.3273  266.4879 C.ar      1 MOL1        0.0000
      3  C          91.6101   48.3227  266.6794 C.ar      1 MOL1        0.0000
      4  C          91.9699   49.5231  267.2873 C.ar      1 MOL1        0.0000
      5  C          93.8968   47.5279  266.9313 C.ar      1 MOL1        0.0000
      6  C          94.2695   48.7730  267.5260 C.ar      1 MOL1        0.0000
      7  N          95.5576   48.9586  267.9485 N.ar      1 MOL1        0.0000
      8  C          96.4495   47.9531  267.7601 C.ar      1 MOL1        0.0000
      9  C          96.0662   46.7381  267.2124 C.ar      1 MOL1        0.0000
     10  N          94.7965   46.5169  266.7871 N.ar      1 MOL1        0.0000
     11  C          93.5926   51.1080  268.3254 C.ar      1 MOL1        0.0000
     12  C          93.0431   51.4518  269.5675 C.ar      1 MOL1        0.0000
     13  C          93.3489   52.6803  270.1568 C.ar      1 MOL1        0.0000
     14  C          94.2002   53.5732  269.5105 C.ar      1 MOL1        0.0000
     15  C          94.7102   53.2574  268.2528 C.ar      1 MOL1        0.0000
     16  C          94.4268   52.0279  267.6749 C.ar      1 MOL1        0.0000
     17  N          90.2713   48.1126  266.3137 N.pl3     1 MOL1        0.0000
     18  C          89.7145   47.3382  265.2871 C.ar      1 MOL1        0.0000
     19  C          90.4125   47.1278  264.0926 C.ar      1 MOL1        0.0000
     20  N          89.9048   46.4459  263.0331 N.ar      1 MOL1        0.0000
     21  C          88.6524   45.9395  263.1609 C.ar      1 MOL1        0.0000
     22  C          87.8830   46.0841  264.3170 C.ar      1 MOL1        0.0000
     23  C          88.4216   46.7951  265.3953 C.ar      1 MOL1        0.0000
     24  S          87.4809   46.8875  266.9255 S.3       1 MOL1        0.0000
     25  O          86.1229   46.4026  266.6623 O.2       1 MOL1        0.0000
     26  O          87.6858   48.2236  267.4941 O.2       1 MOL1        0.0000
     27  C          88.3659   45.6223  267.9978 C.3       1 MOL1        0.0000
     28  BR         95.7702   54.5153  267.3088 Br        1 MOL1        0.0000
     29  H          92.2845   46.3806  266.0483 H         1 MOL1        0.0000
     30  H          91.2071   50.2769  267.4318 H         1 MOL1        0.0000
     31  H          97.4743   48.1503  268.0503 H         1 MOL1        0.0000
     32  H          96.7761   45.9410  267.0505 H         1 MOL1        0.0000
     33  H          92.3934   50.7654  270.0803 H         1 MOL1        0.0000
     34  H          92.9287   52.9349  271.1180 H         1 MOL1        0.0000
     35  H          94.4175   54.5360  269.9608 H         1 MOL1        0.0000
     36  H          94.8274   51.7985  266.6985 H         1 MOL1        0.0000
     37  H          89.5702   48.5863  266.8724 H         1 MOL1        0.0000
     38  H          91.4072   47.5171  263.9719 H         1 MOL1        0.0000
     39  H          88.2658   45.3835  262.3188 H         1 MOL1        0.0000
     40  H          86.9009   45.6304  264.3829 H         1 MOL1        0.0000
     41  H          87.8375   45.5096  268.9490 H         1 MOL1        0.0000
     42  H          89.3862   45.9688  268.1677 H         1 MOL1        0.0000
     43  H          88.3764   44.6703  267.4707 H         1 MOL1        0.0000
@<TRIPOS>BOND
     1      1      4 ar
     2      1      6 ar
     3      1     11 1 
     4      2      3 ar
     5      2      5 ar
     6      3      4 ar
     7      3     17 1 
     8      5      6 ar
     9      5     10 ar
    10      6      7 ar
    11      7      8 ar
    12      8      9 ar
    13      9     10 ar
    14     11     12 ar
    15     11     16 ar
    16     12     13 ar
    17     13     14 ar
    18     14     15 ar
    19     15     16 ar
    20     15     28 1 
    21     17     18 1 
    22     18     19 ar
    23     18     23 ar
    24     19     20 ar
    25     20     21 ar
    26     21     22 ar
    27     22     23 ar
    28     23     24 1 
    29     24     25 2 
    30     24     26 2 
    31     24     27 1 
    32      2     29 1 
    33      4     30 1 
    34      8     31 1 
    35      9     32 1 
    36     12     33 1 
    37     13     34 1 
    38     14     35 1 
    39     16     36 1 
    40     17     37 1 
    41     19     38 1 
    42     21     39 1 
    43     22     40 1 
    44     27     41 1 
    45     27     42 1 
    46     27     43 1 
@<TRIPOS>SUBSTRUCTURE
     1 MOL1         1 MOLECULE 1 A  MOL 
# Molecule written by the XED library from Cresset
