@<TRIPOS>MOLECULE
44
    43     46      1
SMALL
USER_CHARGES
@<TRIPOS>ATOM
      1  C          93.2882   49.7977  267.6708 C.ar      1 MOL1        0.0000
      2  C          92.5637   47.3335  266.4846 C.ar      1 MOL1        0.0000
      3  C          91.6081   48.3294  266.6725 C.ar      1 MOL1        0.0000
      4  C          91.9709   49.5300  267.2742 C.ar      1 MOL1        0.0000
      5  C          93.8914   47.5333  266.9162 C.ar      1 MOL1        0.0000
      6  C          94.2731   48.7764  267.5081 C.ar      1 MOL1        0.0000
      7  N          95.5591   48.9636  267.9348 N.ar      1 MOL1        0.0000
      8  C          96.4502   47.9543  267.7521 C.ar      1 MOL1        0.0000
      9  C          96.0585   46.7408  267.1942 C.ar      1 MOL1        0.0000
     10  N          94.7973   46.5201  266.7745 N.ar      1 MOL1        0.0000
     11  C          93.5906   51.0998  268.3213 C.ar      1 MOL1        0.0000
     12  C          94.5720   51.9589  267.8003 C.ar      1 MOL1        0.0000
     13  C          94.8352   53.1750  268.4354 C.ar      1 MOL1        0.0000
     14  C          94.1267   53.5136  269.5888 C.ar      1 MOL1        0.0000
     15  C          93.1672   52.6613  270.1091 C.ar      1 MOL1        0.0000
     16  C          92.8955   51.4622  269.4718 C.ar      1 MOL1        0.0000
     17  N          90.2709   48.1207  266.3138 N.pl3     1 MOL1        0.0000
     18  C          89.7141   47.3423  265.2863 C.ar      1 MOL1        0.0000
     19  C          90.4157   47.1268  264.0944 C.ar      1 MOL1        0.0000
     20  N          89.9079   46.4425  263.0387 N.ar      1 MOL1        0.0000
     21  C          88.6564   45.9405  263.1630 C.ar      1 MOL1        0.0000
     22  C          87.8865   46.0900  264.3151 C.ar      1 MOL1        0.0000
     23  C          88.4211   46.7995  265.3973 C.ar      1 MOL1        0.0000
     24  S          87.4806   46.8874  266.9241 S.3       1 MOL1        0.0000
     25  O          86.1316   46.3840  266.6643 O.2       1 MOL1        0.0000
     26  O          87.6664   48.2322  267.4864 O.2       1 MOL1        0.0000
     27  C          88.3761   45.6411  268.0196 C.3       1 MOL1        0.0000
     28  BR         94.4648   55.1135  270.5550 Br        1 MOL1        0.0000
     29  H          92.2813   46.3855  266.0517 H         1 MOL1        0.0000
     30  H          91.2136   50.2850  267.4304 H         1 MOL1        0.0000
     31  H          97.4700   48.1448  268.0462 H         1 MOL1        0.0000
     32  H          96.7717   45.9421  267.0347 H         1 MOL1        0.0000
     33  H          95.1086   51.6832  266.9117 H         1 MOL1        0.0000
     34  H          95.5873   53.8378  268.0180 H         1 MOL1        0.0000
     35  H          92.6500   52.9365  271.0211 H         1 MOL1        0.0000
     36  H          92.1555   50.8050  269.8997 H         1 MOL1        0.0000
     37  H          89.5786   48.6031  266.8763 H         1 MOL1        0.0000
     38  H          91.4089   47.5246  263.9655 H         1 MOL1        0.0000
     39  H          88.2700   45.3879  262.3187 H         1 MOL1        0.0000
     40  H          86.9013   45.6455  264.3724 H         1 MOL1        0.0000
     41  H          87.8571   45.5438  268.9719 H         1 MOL1        0.0000
     42  H          89.4007   45.9839  268.1649 H         1 MOL1        0.0000
     43  H          88.3665   44.6742  267.5196 H         1 MOL1        0.0000
@<TRIPOS>BOND
     1      1      4 ar
     2      1      6 ar
     3      1     11 1 
     4      2      3 ar
     5      2      5 ar
     6      3      4 ar
     7      3     17 1 
     8      5      6 ar
     9      5     10 ar
    10      6      7 ar
    11      7      8 ar
    12      8      9 ar
    13      9     10 ar
    14     11     12 ar
    15     11     16 ar
    16     12     13 ar
    17     13     14 ar
    18     14     15 ar
    19     14     28 1 
    20     15     16 ar
    21     17     18 1 
    22     18     19 ar
    23     18     23 ar
    24     19     20 ar
    25     20     21 ar
    26     21     22 ar
    27     22     23 ar
    28     23     24 1 
    29     24     25 2 
    30     24     26 2 
    31     24     27 1 
    32      2     29 1 
    33      4     30 1 
    34      8     31 1 
    35      9     32 1 
    36     12     33 1 
    37     13     34 1 
    38     15     35 1 
    39     16     36 1 
    40     17     37 1 
    41     19     38 1 
    42     21     39 1 
    43     22     40 1 
    44     27     41 1 
    45     27     42 1 
    46     27     43 1 
@<TRIPOS>SUBSTRUCTURE
     1 MOL1         1 MOLECULE 1 A  MOL 
# Molecule written by the XED library from Cresset
