@<TRIPOS>MOLECULE
46
    46     49      1
SMALL
USER_CHARGES
@<TRIPOS>ATOM
      1  C          93.0435   49.8102  267.7232 C.ar      1 MOL1        0.0000
      2  C          92.5273   47.3329  266.4277 C.ar      1 MOL1        0.0000
      3  C          91.5132   48.2719  266.5844 C.ar      1 MOL1        0.0000
      4  C          91.7777   49.4816  267.2149 C.ar      1 MOL1        0.0000
      5  C          93.8278   47.6124  266.9005 C.ar      1 MOL1        0.0000
      6  C          94.1023   48.8575  267.5509 C.ar      1 MOL1        0.0000
      7  N          95.3591   49.1150  268.0281 N.ar      1 MOL1        0.0000
      8  C          96.3141   48.1685  267.8581 C.ar      1 MOL1        0.0000
      9  C          96.0343   46.9585  267.2294 C.ar      1 MOL1        0.0000
     10  N          94.8031   46.6694  266.7522 N.ar      1 MOL1        0.0000
     11  C          93.2132   51.0616  268.5051 C.ar      1 MOL1        0.0000
     12  C          92.2931   51.3561  269.5168 C.ar      1 MOL1        0.0000
     13  C          92.4526   52.4703  270.3218 C.ar      1 MOL1        0.0000
     14  C          94.2814   51.9348  268.2910 C.ar      1 MOL1        0.0000
     15  N          90.1979   47.9914  266.1949 N.pl3     1 MOL1        0.0000
     16  C          89.6525   47.2396  265.1468 C.ar      1 MOL1        0.0000
     17  C          90.3884   46.9960  263.9809 C.ar      1 MOL1        0.0000
     18  N          89.8924   46.3415  262.9026 N.ar      1 MOL1        0.0000
     19  C          88.6191   45.8808  262.9839 C.ar      1 MOL1        0.0000
     20  C          87.8122   46.0650  264.1082 C.ar      1 MOL1        0.0000
     21  C          88.3278   46.7653  265.2033 C.ar      1 MOL1        0.0000
     22  S          87.2988   46.9262  266.6745 S.3       1 MOL1        0.0000
     23  O          87.6993   48.1509  267.3900 O.2       1 MOL1        0.0000
     24  O          85.9037   46.7478  266.2781 O.2       1 MOL1        0.0000
     25  C          87.8417   45.4403  267.6817 C.3       1 MOL1        0.0000
     26  C          94.4415   53.0681  269.0925 C.ar      1 MOL1        0.0000
     27  C          93.5190   53.3406  270.1122 C.ar      1 MOL1        0.0000
     28  C          93.6396   54.5887  270.9796 C.3       1 MOL1        0.0000
     29  F          94.4603   55.4970  270.4478 F         1 MOL1        0.0000
     30  F          92.4459   55.1254  271.1248 F         1 MOL1        0.0000
     31  F          94.0622   54.3038  272.1876 F         1 MOL1        0.0000
     32  H          92.3045   46.3748  265.9852 H         1 MOL1        0.0000
     33  H          90.9583   50.1717  267.3621 H         1 MOL1        0.0000
     34  H          97.3055   48.4008  268.2210 H         1 MOL1        0.0000
     35  H          96.7946   46.1974  267.1006 H         1 MOL1        0.0000
     36  H          91.4475   50.7090  269.6907 H         1 MOL1        0.0000
     37  H          91.7245   52.6732  271.1027 H         1 MOL1        0.0000
     38  H          95.0049   51.7511  267.5041 H         1 MOL1        0.0000
     39  H          89.4779   48.4047  266.7789 H         1 MOL1        0.0000
     40  H          91.4061   47.3503  263.8938 H         1 MOL1        0.0000
     41  H          88.2509   45.3244  262.1374 H         1 MOL1        0.0000
     42  H          86.8142   45.6457  264.1397 H         1 MOL1        0.0000
     43  H          87.2648   45.4223  268.6017 H         1 MOL1        0.0000
     44  H          88.9040   45.5329  267.9000 H         1 MOL1        0.0000
     45  H          87.6573   44.5397  267.0941 H         1 MOL1        0.0000
     46  H          95.2741   53.7341  268.9078 H         1 MOL1        0.0000
@<TRIPOS>BOND
     1      1      4 ar
     2      1      6 ar
     3      1     11 1 
     4      2      3 ar
     5      2      5 ar
     6      3      4 ar
     7      3     15 1 
     8      5      6 ar
     9      5     10 ar
    10      6      7 ar
    11      7      8 ar
    12      8      9 ar
    13      9     10 ar
    14     11     12 ar
    15     11     14 ar
    16     12     13 ar
    17     13     27 ar
    18     14     26 ar
    19     15     16 1 
    20     16     17 ar
    21     16     21 ar
    22     17     18 ar
    23     18     19 ar
    24     19     20 ar
    25     20     21 ar
    26     21     22 1 
    27     22     23 2 
    28     22     24 2 
    29     22     25 1 
    30     26     27 ar
    31     27     28 1 
    32     28     29 1 
    33     28     30 1 
    34     28     31 1 
    35      2     32 1 
    36      4     33 1 
    37      8     34 1 
    38      9     35 1 
    39     12     36 1 
    40     13     37 1 
    41     14     38 1 
    42     15     39 1 
    43     17     40 1 
    44     19     41 1 
    45     20     42 1 
    46     25     43 1 
    47     25     44 1 
    48     25     45 1 
    49     26     46 1 
@<TRIPOS>SUBSTRUCTURE
     1 MOL1         1 MOLECULE 1 A  MOL 
