@<TRIPOS>MOLECULE
47
    49     52      1
SMALL
USER_CHARGES
@<TRIPOS>ATOM
      1  C          91.6083   48.3334  266.6744 C.ar      1 MOL1        0.0000
      2  C          91.9770   49.5235  267.2704 C.ar      1 MOL1        0.0000
      3  C          93.2888   49.7910  267.6682 C.ar      1 MOL1        0.0000
      4  C          92.5616   47.3282  266.4824 C.ar      1 MOL1        0.0000
      5  C          93.8964   47.5326  266.9181 C.ar      1 MOL1        0.0000
      6  C          94.2747   48.7648  267.5031 C.ar      1 MOL1        0.0000
      7  N          95.5582   48.9607  267.9335 N.ar      1 MOL1        0.0000
      8  C          96.4450   47.9497  267.7524 C.ar      1 MOL1        0.0000
      9  C          96.0650   46.7377  267.1987 C.ar      1 MOL1        0.0000
     10  N          94.7919   46.5129  266.7751 N.ar      1 MOL1        0.0000
     11  N          90.2641   48.1146  266.3110 N.pl3     1 MOL1        0.0000
     12  C          93.6036   51.0836  268.3078 C.ar      1 MOL1        0.0000
     13  C          94.5822   51.9426  267.7946 C.ar      1 MOL1        0.0000
     14  C          94.8311   53.1648  268.4136 C.ar      1 MOL1        0.0000
     15  C          92.9139   51.4502  269.4609 C.ar      1 MOL1        0.0000
     16  C          93.1683   52.6744  270.0993 C.ar      1 MOL1        0.0000
     17  C          94.1199   53.5419  269.5356 C.ar      1 MOL1        0.0000
     18  C          89.7151   47.3380  265.2859 C.ar      1 MOL1        0.0000
     19  C          90.4155   47.1252  264.0962 C.ar      1 MOL1        0.0000
     20  N          89.9069   46.4429  263.0388 N.ar      1 MOL1        0.0000
     21  C          88.6553   45.9399  263.1634 C.ar      1 MOL1        0.0000
     22  C          87.8846   46.0881  264.3216 C.ar      1 MOL1        0.0000
     23  C          88.4235   46.7973  265.3979 C.ar      1 MOL1        0.0000
     24  S          87.4819   46.9001  266.9260 S.3       1 MOL1        0.0000
     25  O          86.1337   46.3858  266.6708 O.2       1 MOL1        0.0000
     26  O          87.6636   48.2432  267.4756 O.2       1 MOL1        0.0000
     27  C          88.3745   45.6750  268.0367 C.3       1 MOL1        0.0000
     28  C          94.3537   54.9171  270.1798 C.3       1 MOL1        0.0000
     29  C          93.3263   55.3509  271.2282 C.3       1 MOL1        0.0000
     30  H          91.2153   50.2843  267.4284 H         1 MOL1        0.0000
     31  H          92.2808   46.3800  266.0509 H         1 MOL1        0.0000
     32  H          97.4713   48.1443  268.0472 H         1 MOL1        0.0000
     33  H          96.7709   45.9398  267.0374 H         1 MOL1        0.0000
     34  H          89.5797   48.5996  266.8735 H         1 MOL1        0.0000
     35  H          95.1217   51.6637  266.9061 H         1 MOL1        0.0000
     36  H          95.5765   53.8258  267.9781 H         1 MOL1        0.0000
     37  H          92.1686   50.7946  269.8997 H         1 MOL1        0.0000
     38  H          92.6234   52.9039  270.9908 H         1 MOL1        0.0000
     39  H          91.4081   47.5271  263.9663 H         1 MOL1        0.0000
     40  H          88.2685   45.3871  262.3178 H         1 MOL1        0.0000
     41  H          86.9030   45.6439  264.3753 H         1 MOL1        0.0000
     42  H          87.8677   45.6377  269.0038 H         1 MOL1        0.0000
     43  H          89.4074   46.0025  268.1649 H         1 MOL1        0.0000
     44  H          88.3453   44.6912  267.5702 H         1 MOL1        0.0000
     45  H          94.5106   55.6469  269.3723 H         1 MOL1        0.0000
     46  H          95.2617   54.9789  270.8007 H         1 MOL1        0.0000
     47  H          93.6635   56.3169  271.6265 H         1 MOL1        0.0000
     48  H          93.3324   54.6666  272.0834 H         1 MOL1        0.0000
     49  H          92.3099   55.4448  270.8647 H         1 MOL1        0.0000
@<TRIPOS>BOND
     1      1      2 ar
     2      1      4 ar
     3      1     11 1 
     4      2      3 ar
     5      3      6 ar
     6      3     12 1 
     7      4      5 ar
     8      5      6 ar
     9      5     10 ar
    10      6      7 ar
    11      7      8 ar
    12      8      9 ar
    13      9     10 ar
    14     11     18 1 
    15     12     13 ar
    16     12     15 ar
    17     13     14 ar
    18     14     17 ar
    19     15     16 ar
    20     16     17 ar
    21     17     28 1 
    22     18     19 ar
    23     18     23 ar
    24     19     20 ar
    25     20     21 ar
    26     21     22 ar
    27     22     23 ar
    28     23     24 1 
    29     24     25 2 
    30     24     26 2 
    31     24     27 1 
    32     28     29 1 
    33      2     30 1 
    34      4     31 1 
    35      8     32 1 
    36      9     33 1 
    37     11     34 1 
    38     13     35 1 
    39     14     36 1 
    40     15     37 1 
    41     16     38 1 
    42     19     39 1 
    43     21     40 1 
    44     22     41 1 
    45     27     42 1 
    46     27     43 1 
    47     27     44 1 
    48     28     45 1 
    49     28     46 1 
    50     29     47 1 
    51     29     48 1 
    52     29     49 1 
@<TRIPOS>SUBSTRUCTURE
     1 MOL1         1 MOLECULE 1 A  MOL 
# Molecule written by the XED library from Cresset
