@<TRIPOS>MOLECULE
48
    47     50      1
SMALL
USER_CHARGES
@<TRIPOS>ATOM
      1  C          93.2891   49.7935  267.6637 C.ar      1 MOL1        0.0000
      2  C          92.5608   47.3405  266.4814 C.ar      1 MOL1        0.0000
      3  C          91.6077   48.3332  266.6707 C.ar      1 MOL1        0.0000
      4  C          91.9710   49.5295  267.2722 C.ar      1 MOL1        0.0000
      5  C          93.8940   47.5337  266.9045 C.ar      1 MOL1        0.0000
      6  C          94.2774   48.7739  267.4976 C.ar      1 MOL1        0.0000
      7  N          95.5626   48.9634  267.9321 N.ar      1 MOL1        0.0000
      8  C          96.4502   47.9550  267.7462 C.ar      1 MOL1        0.0000
      9  C          96.0648   46.7470  267.1768 C.ar      1 MOL1        0.0000
     10  N          94.7990   46.5280  266.7549 N.ar      1 MOL1        0.0000
     11  C          93.5991   51.0971  268.3145 C.ar      1 MOL1        0.0000
     12  C          94.5753   51.9457  267.7785 C.ar      1 MOL1        0.0000
     13  C          94.8348   53.1676  268.4112 C.ar      1 MOL1        0.0000
     14  C          94.1285   53.5217  269.5605 C.ar      1 MOL1        0.0000
     15  C          93.1788   52.6604  270.1058 C.ar      1 MOL1        0.0000
     16  C          92.9139   51.4668  269.4673 C.ar      1 MOL1        0.0000
     17  N          90.2715   48.1257  266.3145 N.pl3     1 MOL1        0.0000
     18  C          89.7152   47.3459  265.2879 C.ar      1 MOL1        0.0000
     19  C          90.4202   47.1272  264.0964 C.ar      1 MOL1        0.0000
     20  N          89.9128   46.4356  263.0462 N.ar      1 MOL1        0.0000
     21  C          88.6622   45.9374  263.1674 C.ar      1 MOL1        0.0000
     22  C          87.8909   46.0945  264.3162 C.ar      1 MOL1        0.0000
     23  C          88.4225   46.8019  265.4011 C.ar      1 MOL1        0.0000
     24  S          87.4807   46.8954  266.9247 S.3       1 MOL1        0.0000
     25  O          86.1397   46.3717  266.6686 O.2       1 MOL1        0.0000
     26  O          87.6511   48.2450  267.4794 O.2       1 MOL1        0.0000
     27  C          88.3821   45.6757  268.0448 C.3       1 MOL1        0.0000
     28  O          94.3897   54.7426  270.1571 O.3       1 MOL1        0.0000
     29  C          93.7287   55.0566  271.4029 C.3       1 MOL1        0.0000
     30  H          92.2928   46.4025  266.0289 H         1 MOL1        0.0000
     31  H          91.2152   50.2846  267.4485 H         1 MOL1        0.0000
     32  H          97.4706   48.1430  268.0444 H         1 MOL1        0.0000
     33  H          96.7729   45.9446  267.0248 H         1 MOL1        0.0000
     34  H          95.1201   51.6805  266.8911 H         1 MOL1        0.0000
     35  H          95.5945   53.8385  267.9783 H         1 MOL1        0.0000
     36  H          92.6588   52.9129  271.0228 H         1 MOL1        0.0000
     37  H          92.1743   50.8105  269.8846 H         1 MOL1        0.0000
     38  H          89.5886   48.6199  266.8796 H         1 MOL1        0.0000
     39  H          91.4216   47.5070  263.9713 H         1 MOL1        0.0000
     40  H          88.2783   45.3853  262.3241 H         1 MOL1        0.0000
     41  H          86.9043   45.6552  264.3634 H         1 MOL1        0.0000
     42  H          87.8696   45.6335  269.0000 H         1 MOL1        0.0000
     43  H          89.4070   46.0124  268.1808 H         1 MOL1        0.0000
     44  H          88.3643   44.6916  267.5753 H         1 MOL1        0.0000
     45  H          94.0299   56.0094  271.7452 H         1 MOL1        0.0000
     46  H          94.0028   54.3161  272.1675 H         1 MOL1        0.0000
     47  H          92.6363   55.0361  271.2683 H         1 MOL1        0.0000
@<TRIPOS>BOND
     1      1      4 ar
     2      1      6 ar
     3      1     11 1 
     4      2      3 ar
     5      2      5 ar
     6      3      4 ar
     7      3     17 1 
     8      5      6 ar
     9      5     10 ar
    10      6      7 ar
    11      7      8 ar
    12      8      9 ar
    13      9     10 ar
    14     11     12 ar
    15     11     16 ar
    16     12     13 ar
    17     13     14 ar
    18     14     15 ar
    19     14     28 1 
    20     15     16 ar
    21     17     18 1 
    22     18     19 ar
    23     18     23 ar
    24     19     20 ar
    25     20     21 ar
    26     21     22 ar
    27     22     23 ar
    28     23     24 1 
    29     24     25 2 
    30     24     26 2 
    31     24     27 1 
    32     28     29 1 
    33      2     30 1 
    34      4     31 1 
    35      8     32 1 
    36      9     33 1 
    37     12     34 1 
    38     13     35 1 
    39     15     36 1 
    40     16     37 1 
    41     17     38 1 
    42     19     39 1 
    43     21     40 1 
    44     22     41 1 
    45     27     42 1 
    46     27     43 1 
    47     27     44 1 
    48     29     45 1 
    49     29     46 1 
    50     29     47 1 
@<TRIPOS>SUBSTRUCTURE
     1 MOL1         1 MOLECULE 1 A  MOL 
# Molecule written by the XED library from Cresset
