@<TRIPOS>MOLECULE
52
    53     57      1
SMALL
USER_CHARGES
@<TRIPOS>ATOM
      1  C          93.3114   49.8130  267.6412 C.ar      1 MOL1        0.0000
      2  C          92.5675   47.3461  266.4704 C.ar      1 MOL1        0.0000
      3  C          91.6140   48.3391  266.6758 C.ar      1 MOL1        0.0000
      4  C          91.9831   49.5402  267.2763 C.ar      1 MOL1        0.0000
      5  C          93.8959   47.5397  266.9028 C.ar      1 MOL1        0.0000
      6  C          94.2808   48.7816  267.4948 C.ar      1 MOL1        0.0000
      7  N          95.5663   48.9631  267.9272 N.ar      1 MOL1        0.0000
      8  C          96.4496   47.9536  267.7395 C.ar      1 MOL1        0.0000
      9  C          96.0619   46.7444  267.1779 C.ar      1 MOL1        0.0000
     10  N          94.7952   46.5297  266.7538 N.ar      1 MOL1        0.0000
     11  N          90.2754   48.1313  266.3198 N.pl3     1 MOL1        0.0000
     12  C          89.7170   47.3507  265.2914 C.ar      1 MOL1        0.0000
     13  C          90.4214   47.1275  264.1002 C.ar      1 MOL1        0.0000
     14  N          89.9190   46.4350  263.0470 N.ar      1 MOL1        0.0000
     15  C          88.6628   45.9396  263.1653 C.ar      1 MOL1        0.0000
     16  C          87.8883   46.0973  264.3134 C.ar      1 MOL1        0.0000
     17  C          88.4249   46.8053  265.3978 C.ar      1 MOL1        0.0000
     18  S          87.4805   46.8913  266.9255 S.3       1 MOL1        0.0000
     19  O          86.1396   46.3665  266.6677 O.2       1 MOL1        0.0000
     20  O          87.6491   48.2417  267.4792 O.2       1 MOL1        0.0000
     21  C          88.3838   45.6765  268.0465 C.3       1 MOL1        0.0000
     22  C          93.6501   51.1190  268.2585 C.ar      1 MOL1        0.0000
     23  C          94.6211   51.9736  267.7509 C.ar      1 MOL1        0.0000
     24  C          94.8963   53.2015  268.3556 C.ar      1 MOL1        0.0000
     25  C          92.9588   51.4516  269.4041 C.ar      1 MOL1        0.0000
     26  C          93.2230   52.6641  270.0467 C.ar      1 MOL1        0.0000
     27  C          94.1745   53.5756  269.5049 C.ar      1 MOL1        0.0000
     28  C          94.1617   54.7286  270.3490 C.ar      1 MOL1        0.0000
     29  C          93.2720   54.4750  271.3665 C.ar      1 MOL1        0.0000
     30  N          92.7072   53.2287  271.2146 N.pl3     1 MOL1        0.0000
     31  C          91.8097   52.6164  272.2120 C.3       1 MOL1        0.0000
     32  C          90.7891   51.6506  271.6176 C.3       1 MOL1        0.0000
     33  H          92.2865   46.4011  266.0282 H         1 MOL1        0.0000
     34  H          91.2205   50.2896  267.4478 H         1 MOL1        0.0000
     35  H          97.4683   48.1408  268.0439 H         1 MOL1        0.0000
     36  H          96.7697   45.9448  267.0181 H         1 MOL1        0.0000
     37  H          89.5855   48.6227  266.8783 H         1 MOL1        0.0000
     38  H          91.4226   47.5040  263.9727 H         1 MOL1        0.0000
     39  H          88.2778   45.3844  262.3233 H         1 MOL1        0.0000
     40  H          86.9011   45.6556  264.3639 H         1 MOL1        0.0000
     41  H          87.8696   45.6352  269.0056 H         1 MOL1        0.0000
     42  H          89.4113   46.0126  268.1795 H         1 MOL1        0.0000
     43  H          88.3656   44.6930  267.5797 H         1 MOL1        0.0000
     44  H          95.1401   51.6698  266.8558 H         1 MOL1        0.0000
     45  H          95.6429   53.8541  267.9250 H         1 MOL1        0.0000
     46  H          92.2336   50.7237  269.7011 H         1 MOL1        0.0000
     47  H          94.7721   55.6146  270.2457 H         1 MOL1        0.0000
     48  H          93.0024   55.0952  272.2130 H         1 MOL1        0.0000
     49  H          91.2696   53.4001  272.7426 H         1 MOL1        0.0000
     50  H          92.4113   52.0715  272.9378 H         1 MOL1        0.0000
     51  H          90.1336   51.1695  272.3208 H         1 MOL1        0.0000
     52  H          91.2619   50.7266  271.3302 H         1 MOL1        0.0000
     53  H          90.2101   52.0773  270.7922 H         1 MOL1        0.0000
@<TRIPOS>BOND
     1      1      4 ar
     2      1      6 ar
     3      1     22 1 
     4      2      3 ar
     5      2      5 ar
     6      3      4 ar
     7      3     11 1 
     8      5      6 ar
     9      5     10 ar
    10      6      7 ar
    11      7      8 ar
    12      8      9 ar
    13      9     10 ar
    14     11     12 1 
    15     12     13 ar
    16     12     17 ar
    17     13     14 ar
    18     14     15 ar
    19     15     16 ar
    20     16     17 ar
    21     17     18 1 
    22     18     19 2 
    23     18     20 2 
    24     18     21 1 
    25     22     23 ar
    26     22     25 ar
    27     23     24 ar
    28     24     27 ar
    29     25     26 ar
    30     26     27 ar
    31     26     30 ar
    32     27     28 ar
    33     28     29 ar
    34     29     30 ar
    35     30     31 1 
    36     31     32 1 
    37      2     33 1 
    38      4     34 1 
    39      8     35 1 
    40      9     36 1 
    41     11     37 1 
    42     13     38 1 
    43     15     39 1 
    44     16     40 1 
    45     21     41 1 
    46     21     42 1 
    47     21     43 1 
    48     23     44 1 
    49     24     45 1 
    50     25     46 1 
    51     28     47 1 
    52     29     48 1 
    53     31     49 1 
    54     31     50 1 
    55     32     51 1 
    56     32     52 1 
    57     32     53 1 
@<TRIPOS>SUBSTRUCTURE
     1 MOL1         1 MOLECULE 1 A  MOL 
# Molecule written by the XED library from Cresset
