@<TRIPOS>MOLECULE
54
    56     60      1
SMALL
USER_CHARGES
@<TRIPOS>ATOM
      1  C          91.6126   48.3353  266.6703 C.ar      1 MOL1        0.0000
      2  C          91.9733   49.5324  267.2808 C.ar      1 MOL1        0.0000
      3  C          93.2894   49.7956  267.6797 C.ar      1 MOL1        0.0000
      4  C          92.5692   47.3436  266.4693 C.ar      1 MOL1        0.0000
      5  C          93.8975   47.5406  266.9051 C.ar      1 MOL1        0.0000
      6  C          94.2749   48.7798  267.5080 C.ar      1 MOL1        0.0000
      7  N          95.5631   48.9638  267.9369 N.ar      1 MOL1        0.0000
      8  C          96.4503   47.9554  267.7480 C.ar      1 MOL1        0.0000
      9  C          96.0641   46.7442  267.1890 C.ar      1 MOL1        0.0000
     10  N          94.7980   46.5299  266.7611 N.ar      1 MOL1        0.0000
     11  N          90.2745   48.1250  266.3159 N.pl3     1 MOL1        0.0000
     12  C          93.6036   51.0937  268.3225 C.ar      1 MOL1        0.0000
     13  C          94.5719   51.9443  267.7904 C.ar      1 MOL1        0.0000
     14  C          94.8678   53.1797  268.3665 C.ar      1 MOL1        0.0000
     15  C          92.9154   51.4322  269.4867 C.ar      1 MOL1        0.0000
     16  C          93.2133   52.6617  270.0729 C.ar      1 MOL1        0.0000
     17  C          94.1579   53.5698  269.5118 C.ar      1 MOL1        0.0000
     18  C          94.1541   54.7093  270.3309 C.ar      1 MOL1        0.0000
     19  C          93.2816   54.4947  271.3567 C.ar      1 MOL1        0.0000
     20  N          92.7301   53.2407  271.2279 N.pl3     1 MOL1        0.0000
     21  C          91.7687   52.6196  272.1281 C.3       1 MOL1        0.0000
     22  C          91.6695   53.3551  273.4819 C.3       1 MOL1        0.0000
     23  C          90.4002   52.4193  271.3856 C.3       1 MOL1        0.0000
     24  C          89.7164   47.3465  265.2896 C.ar      1 MOL1        0.0000
     25  C          90.4207   47.1272  264.0986 C.ar      1 MOL1        0.0000
     26  N          89.9174   46.4367  263.0451 N.ar      1 MOL1        0.0000
     27  C          88.6611   45.9399  263.1652 C.ar      1 MOL1        0.0000
     28  C          87.8879   46.0951  264.3148 C.ar      1 MOL1        0.0000
     29  C          88.4239   46.8032  265.3975 C.ar      1 MOL1        0.0000
     30  S          87.4822   46.8958  266.9257 S.3       1 MOL1        0.0000
     31  O          86.1360   46.3755  266.6688 O.2       1 MOL1        0.0000
     32  O          87.6578   48.2428  267.4781 O.2       1 MOL1        0.0000
     33  C          88.3798   45.6764  268.0436 C.3       1 MOL1        0.0000
     34  H          91.2145   50.2854  267.4442 H         1 MOL1        0.0000
     35  H          92.2845   46.3951  266.0360 H         1 MOL1        0.0000
     36  H          97.4713   48.1451  268.0452 H         1 MOL1        0.0000
     37  H          96.7707   45.9444  267.0243 H         1 MOL1        0.0000
     38  H          89.5780   48.6109  266.8719 H         1 MOL1        0.0000
     39  H          95.1002   51.6545  266.8958 H         1 MOL1        0.0000
     40  H          95.6157   53.8276  267.9300 H         1 MOL1        0.0000
     41  H          92.1877   50.7543  269.9089 H         1 MOL1        0.0000
     42  H          94.7529   55.6243  270.2202 H         1 MOL1        0.0000
     43  H          93.0161   55.0955  272.1923 H         1 MOL1        0.0000
     44  H          92.1536   51.6237  272.3554 H         1 MOL1        0.0000
     45  H          92.5476   53.6471  274.0500 H         1 MOL1        0.0000
     46  H          91.1124   52.7122  274.1928 H         1 MOL1        0.0000
     47  H          91.2885   54.3558  273.2473 H         1 MOL1        0.0000
     48  H          90.5061   51.8838  270.4532 H         1 MOL1        0.0000
     49  H          89.8247   53.2499  271.0094 H         1 MOL1        0.0000
     50  H          89.6958   51.8977  272.0227 H         1 MOL1        0.0000
     51  H          91.4171   47.5177  263.9750 H         1 MOL1        0.0000
     52  H          88.2766   45.3843  262.3234 H         1 MOL1        0.0000
     53  H          86.9020   45.6504  264.3737 H         1 MOL1        0.0000
     54  H          87.8636   45.6303  269.0016 H         1 MOL1        0.0000
     55  H          89.4070   46.0138  268.1769 H         1 MOL1        0.0000
     56  H          88.3633   44.6962  267.5702 H         1 MOL1        0.0000
@<TRIPOS>BOND
     1      1      2 ar
     2      1      4 ar
     3      1     11 1 
     4      2      3 ar
     5      3      6 ar
     6      3     12 1 
     7      4      5 ar
     8      5      6 ar
     9      5     10 ar
    10      6      7 ar
    11      7      8 ar
    12      8      9 ar
    13      9     10 ar
    14     11     24 1 
    15     12     13 ar
    16     12     15 ar
    17     13     14 ar
    18     14     17 ar
    19     15     16 ar
    20     16     17 ar
    21     16     20 ar
    22     17     18 ar
    23     18     19 ar
    24     19     20 ar
    25     20     21 1 
    26     21     22 1 
    27     21     23 1 
    28     24     25 ar
    29     24     29 ar
    30     25     26 ar
    31     26     27 ar
    32     27     28 ar
    33     28     29 ar
    34     29     30 1 
    35     30     31 2 
    36     30     32 2 
    37     30     33 1 
    38      2     34 1 
    39      4     35 1 
    40      8     36 1 
    41      9     37 1 
    42     11     38 1 
    43     13     39 1 
    44     14     40 1 
    45     15     41 1 
    46     18     42 1 
    47     19     43 1 
    48     21     44 1 
    49     22     45 1 
    50     22     46 1 
    51     22     47 1 
    52     23     48 1 
    53     23     49 1 
    54     23     50 1 
    55     25     51 1 
    56     27     52 1 
    57     28     53 1 
    58     33     54 1 
    59     33     55 1 
    60     33     56 1 
@<TRIPOS>SUBSTRUCTURE
     1 MOL1         1 MOLECULE 1 A  MOL 
# Molecule written by the XED library from Cresset
