@<TRIPOS>MOLECULE
55
    50     54      1
SMALL
USER_CHARGES
@<TRIPOS>ATOM
      1  C          91.6118   48.3366  266.6739 C.ar      1 MOL1        0.0000
      2  C          91.9698   49.5336  267.2864 C.ar      1 MOL1        0.0000
      3  C          93.2850   49.8006  267.6832 C.ar      1 MOL1        0.0000
      4  C          92.5678   47.3462  266.4686 C.ar      1 MOL1        0.0000
      5  C          93.8944   47.5432  266.9034 C.ar      1 MOL1        0.0000
      6  C          94.2719   48.7828  267.5077 C.ar      1 MOL1        0.0000
      7  N          95.5609   48.9661  267.9315 N.ar      1 MOL1        0.0000
      8  C          96.4476   47.9576  267.7393 C.ar      1 MOL1        0.0000
      9  C          96.0612   46.7472  267.1782 C.ar      1 MOL1        0.0000
     10  N          94.7955   46.5340  266.7522 N.ar      1 MOL1        0.0000
     11  N          90.2745   48.1296  266.3175 N.pl3     1 MOL1        0.0000
     12  C          93.5938   51.0998  268.3264 C.ar      1 MOL1        0.0000
     13  C          94.5697   51.9459  267.7912 C.ar      1 MOL1        0.0000
     14  C          94.8659   53.1774  268.3683 C.ar      1 MOL1        0.0000
     15  C          92.8971   51.4508  269.4842 C.ar      1 MOL1        0.0000
     16  C          93.2083   52.6701  270.0801 C.ar      1 MOL1        0.0000
     17  C          94.1610   53.5698  269.5192 C.ar      1 MOL1        0.0000
     18  C          94.1614   54.7332  270.3565 C.ar      1 MOL1        0.0000
     19  C          93.2770   54.4957  271.3795 C.ar      1 MOL1        0.0000
     20  N          92.7327   53.2443  271.2450 N.pl3     1 MOL1        0.0000
     21  C          91.8103   52.6326  272.1899 C.3       1 MOL1        0.0000
     22  C          89.7167   47.3494  265.2904 C.ar      1 MOL1        0.0000
     23  C          90.4217   47.1254  264.0999 C.ar      1 MOL1        0.0000
     24  N          89.9191   46.4337  263.0465 N.ar      1 MOL1        0.0000
     25  C          88.6626   45.9393  263.1648 C.ar      1 MOL1        0.0000
     26  C          87.8878   46.0972  264.3127 C.ar      1 MOL1        0.0000
     27  C          88.4240   46.8050  265.3972 C.ar      1 MOL1        0.0000
     28  S          87.4806   46.8913  266.9254 S.3       1 MOL1        0.0000
     29  O          86.1391   46.3662  266.6675 O.2       1 MOL1        0.0000
     30  O          87.6492   48.2412  267.4790 O.2       1 MOL1        0.0000
     31  C          88.3838   45.6765  268.0469 C.3       1 MOL1        0.0000
     32  F          95.8038   53.9727  267.8010 F         1 MOL1        0.0000
     33  H          91.2097   50.2861  267.4498 H         1 MOL1        0.0000
     34  H          92.2873   46.4001  266.0275 H         1 MOL1        0.0000
     35  H          97.4668   48.1419  268.0435 H         1 MOL1        0.0000
     36  H          96.7689   45.9467  267.0182 H         1 MOL1        0.0000
     37  H          89.5852   48.6214  266.8768 H         1 MOL1        0.0000
     38  H          95.1005   51.6570  266.8939 H         1 MOL1        0.0000
     39  H          92.1487   50.7992  269.9119 H         1 MOL1        0.0000
     40  H          94.7728   55.6120  270.2423 H         1 MOL1        0.0000
     41  H          92.9987   55.1122  272.2199 H         1 MOL1        0.0000
     42  H          90.8758   52.3918  271.6860 H         1 MOL1        0.0000
     43  H          91.6098   53.2996  273.0303 H         1 MOL1        0.0000
     44  H          92.2492   51.7136  272.5787 H         1 MOL1        0.0000
     45  H          91.4224   47.5032  263.9725 H         1 MOL1        0.0000
     46  H          88.2774   45.3841  262.3232 H         1 MOL1        0.0000
     47  H          86.9004   45.6554  264.3643 H         1 MOL1        0.0000
     48  H          87.8695   45.6352  269.0056 H         1 MOL1        0.0000
     49  H          89.4113   46.0126  268.1792 H         1 MOL1        0.0000
     50  H          88.3656   44.6930  267.5796 H         1 MOL1        0.0000
@<TRIPOS>BOND
     1      1      2 ar
     2      1      4 ar
     3      1     11 1 
     4      2      3 ar
     5      3      6 ar
     6      3     12 1 
     7      4      5 ar
     8      5      6 ar
     9      5     10 ar
    10      6      7 ar
    11      7      8 ar
    12      8      9 ar
    13      9     10 ar
    14     11     22 1 
    15     12     13 ar
    16     12     15 ar
    17     13     14 ar
    18     14     17 ar
    19     14     32 1 
    20     15     16 ar
    21     16     17 ar
    22     16     20 ar
    23     17     18 ar
    24     18     19 ar
    25     19     20 ar
    26     20     21 1 
    27     22     23 ar
    28     22     27 ar
    29     23     24 ar
    30     24     25 ar
    31     25     26 ar
    32     26     27 ar
    33     27     28 1 
    34     28     29 2 
    35     28     30 2 
    36     28     31 1 
    37      2     33 1 
    38      4     34 1 
    39      8     35 1 
    40      9     36 1 
    41     11     37 1 
    42     13     38 1 
    43     15     39 1 
    44     18     40 1 
    45     19     41 1 
    46     21     42 1 
    47     21     43 1 
    48     21     44 1 
    49     23     45 1 
    50     25     46 1 
    51     26     47 1 
    52     31     48 1 
    53     31     49 1 
    54     31     50 1 
@<TRIPOS>SUBSTRUCTURE
     1 MOL1         1 MOLECULE 1 A  MOL 
# Molecule written by the XED library from Cresset
