@<TRIPOS>MOLECULE
56
    53     57      1
SMALL
USER_CHARGES
@<TRIPOS>ATOM
      1  C          93.2875   49.7899  267.6817 C.ar      1 MOL1        0.0000
      2  C          92.5639   47.3419  266.4806 C.ar      1 MOL1        0.0000
      3  C          91.6077   48.3343  266.6701 C.ar      1 MOL1        0.0000
      4  C          91.9668   49.5310  267.2781 C.ar      1 MOL1        0.0000
      5  C          93.8923   47.5378  266.9074 C.ar      1 MOL1        0.0000
      6  C          94.2733   48.7754  267.5078 C.ar      1 MOL1        0.0000
      7  N          95.5604   48.9644  267.9353 N.ar      1 MOL1        0.0000
      8  C          96.4505   47.9552  267.7478 C.ar      1 MOL1        0.0000
      9  C          96.0626   46.7471  267.1815 C.ar      1 MOL1        0.0000
     10  N          94.7984   46.5302  266.7568 N.ar      1 MOL1        0.0000
     11  C          93.5872   51.0916  268.3371 C.ar      1 MOL1        0.0000
     12  C          94.5607   51.9338  267.7811 C.ar      1 MOL1        0.0000
     13  C          94.8501   53.1823  268.3498 C.ar      1 MOL1        0.0000
     14  C          92.8941   51.4456  269.4877 C.ar      1 MOL1        0.0000
     15  N          90.2744   48.1264  266.3145 N.pl3     1 MOL1        0.0000
     16  C          89.7159   47.3451  265.2886 C.ar      1 MOL1        0.0000
     17  C          90.4198   47.1284  264.0960 C.ar      1 MOL1        0.0000
     18  N          89.9137   46.4353  263.0457 N.ar      1 MOL1        0.0000
     19  C          88.6627   45.9369  263.1677 C.ar      1 MOL1        0.0000
     20  C          87.8910   46.0926  264.3162 C.ar      1 MOL1        0.0000
     21  C          88.4236   46.8007  265.4015 C.ar      1 MOL1        0.0000
     22  S          87.4795   46.8934  266.9237 S.3       1 MOL1        0.0000
     23  O          86.1396   46.3756  266.6690 O.2       1 MOL1        0.0000
     24  O          87.6540   48.2479  267.4799 O.2       1 MOL1        0.0000
     25  C          88.3811   45.6759  268.0440 C.3       1 MOL1        0.0000
     26  C          93.1885   52.6594  270.0906 C.ar      1 MOL1        0.0000
     27  C          94.1456   53.5742  269.5213 C.ar      1 MOL1        0.0000
     28  C          94.1354   54.7290  270.3575 C.ar      1 MOL1        0.0000
     29  C          93.2772   54.4881  271.4048 C.ar      1 MOL1        0.0000
     30  N          92.7219   53.2385  271.2473 N.pl3     1 MOL1        0.0000
     31  C          91.7905   52.6217  272.1985 C.3       1 MOL1        0.0000
     32  C          95.8952   54.0681  267.6802 C.3       1 MOL1        0.0000
     33  H          92.2925   46.4013  266.0331 H         1 MOL1        0.0000
     34  H          91.2134   50.2862  267.4482 H         1 MOL1        0.0000
     35  H          97.4693   48.1427  268.0450 H         1 MOL1        0.0000
     36  H          96.7702   45.9454  267.0266 H         1 MOL1        0.0000
     37  H          95.0864   51.6342  266.8950 H         1 MOL1        0.0000
     38  H          92.1681   50.7999  269.9073 H         1 MOL1        0.0000
     39  H          89.5875   48.6177  266.8787 H         1 MOL1        0.0000
     40  H          91.4203   47.5082  263.9713 H         1 MOL1        0.0000
     41  H          88.2769   45.3851  262.3238 H         1 MOL1        0.0000
     42  H          86.9026   45.6536  264.3651 H         1 MOL1        0.0000
     43  H          87.8674   45.6321  268.9994 H         1 MOL1        0.0000
     44  H          89.4061   46.0126  268.1806 H         1 MOL1        0.0000
     45  H          88.3636   44.6924  267.5725 H         1 MOL1        0.0000
     46  H          94.7512   55.6085  270.2439 H         1 MOL1        0.0000
     47  H          93.0100   55.0853  272.2451 H         1 MOL1        0.0000
     48  H          92.2515   51.6982  272.5723 H         1 MOL1        0.0000
     49  H          90.8611   52.3901  271.6745 H         1 MOL1        0.0000
     50  H          91.6098   53.3004  273.0211 H         1 MOL1        0.0000
     51  H          96.2694   53.6372  266.7661 H         1 MOL1        0.0000
     52  H          96.7532   54.2169  268.3024 H         1 MOL1        0.0000
     53  H          95.4728   55.0506  267.4370 H         1 MOL1        0.0000
@<TRIPOS>BOND
     1      1      4 ar
     2      1      6 ar
     3      1     11 1 
     4      2      3 ar
     5      2      5 ar
     6      3      4 ar
     7      3     15 1 
     8      5      6 ar
     9      5     10 ar
    10      6      7 ar
    11      7      8 ar
    12      8      9 ar
    13      9     10 ar
    14     11     12 ar
    15     11     14 ar
    16     12     13 ar
    17     13     27 ar
    18     13     32 1 
    19     14     26 ar
    20     15     16 1 
    21     16     17 ar
    22     16     21 ar
    23     17     18 ar
    24     18     19 ar
    25     19     20 ar
    26     20     21 ar
    27     21     22 1 
    28     22     23 2 
    29     22     24 2 
    30     22     25 1 
    31     26     27 ar
    32     26     30 ar
    33     27     28 ar
    34     28     29 ar
    35     29     30 ar
    36     30     31 1 
    37      2     33 1 
    38      4     34 1 
    39      8     35 1 
    40      9     36 1 
    41     12     37 1 
    42     14     38 1 
    43     15     39 1 
    44     17     40 1 
    45     19     41 1 
    46     20     42 1 
    47     25     43 1 
    48     25     44 1 
    49     25     45 1 
    50     28     46 1 
    51     29     47 1 
    52     31     48 1 
    53     31     49 1 
    54     31     50 1 
    55     32     51 1 
    56     32     52 1 
    57     32     53 1 
@<TRIPOS>SUBSTRUCTURE
     1 MOL1         1 MOLECULE 1 A  MOL 
# Molecule written by the XED library from Cresset
