@<TRIPOS>MOLECULE
57
    50     54      1
SMALL
USER_CHARGES
@<TRIPOS>ATOM
      1  C          93.2863   49.8046  267.6850 C.ar      1 MOL1        0.0000
      2  C          92.5683   47.3483  266.4663 C.ar      1 MOL1        0.0000
      3  C          91.6135   48.3386  266.6756 C.ar      1 MOL1        0.0000
      4  C          91.9715   49.5355  267.2897 C.ar      1 MOL1        0.0000
      5  C          93.8941   47.5445  266.9029 C.ar      1 MOL1        0.0000
      6  C          94.2723   48.7844  267.5084 C.ar      1 MOL1        0.0000
      7  N          95.5616   48.9663  267.9306 N.ar      1 MOL1        0.0000
      8  C          96.4473   47.9576  267.7370 C.ar      1 MOL1        0.0000
      9  C          96.0606   46.7470  267.1769 C.ar      1 MOL1        0.0000
     10  N          94.7945   46.5353  266.7507 N.ar      1 MOL1        0.0000
     11  C          93.5945   51.1040  268.3281 C.ar      1 MOL1        0.0000
     12  C          94.5736   51.9510  267.7909 C.ar      1 MOL1        0.0000
     13  C          94.8742   53.1838  268.3688 C.ar      1 MOL1        0.0000
     14  C          92.8962   51.4518  269.4842 C.ar      1 MOL1        0.0000
     15  N          90.2751   48.1321  266.3186 N.pl3     1 MOL1        0.0000
     16  C          89.7173   47.3514  265.2910 C.ar      1 MOL1        0.0000
     17  C          90.4223   47.1244  264.1010 C.ar      1 MOL1        0.0000
     18  N          89.9202   46.4330  263.0469 N.ar      1 MOL1        0.0000
     19  C          88.6631   45.9395  263.1640 C.ar      1 MOL1        0.0000
     20  C          87.8874   46.0982  264.3115 C.ar      1 MOL1        0.0000
     21  C          88.4234   46.8064  265.3954 C.ar      1 MOL1        0.0000
     22  S          87.4813   46.8916  266.9240 S.3       1 MOL1        0.0000
     23  O          86.1376   46.3636  266.6658 O.2       1 MOL1        0.0000
     24  O          87.6482   48.2377  267.4791 O.2       1 MOL1        0.0000
     25  C          88.3853   45.6716  268.0379 C.3       1 MOL1        0.0000
     26  C          93.2144   52.6711  270.0767 C.ar      1 MOL1        0.0000
     27  C          94.1671   53.5709  269.5134 C.ar      1 MOL1        0.0000
     28  C          94.1722   54.7295  270.3422 C.ar      1 MOL1        0.0000
     29  C          93.2836   54.5053  271.3550 C.ar      1 MOL1        0.0000
     30  N          92.7499   53.2450  271.2433 N.pl3     1 MOL1        0.0000
     31  C          91.7998   52.6492  272.1756 C.3       1 MOL1        0.0000
     32  F          91.8677   53.3117  273.3272 F         1 MOL1        0.0000
     33  F          90.5872   52.7234  271.6286 F         1 MOL1        0.0000
     34  H          92.2862   46.4014  266.0262 H         1 MOL1        0.0000
     35  H          91.2115   50.2889  267.4523 H         1 MOL1        0.0000
     36  H          97.4660   48.1411  268.0432 H         1 MOL1        0.0000
     37  H          96.7683   45.9468  267.0162 H         1 MOL1        0.0000
     38  H          95.0991   51.6553  266.8907 H         1 MOL1        0.0000
     39  H          95.6230   53.8288  267.9270 H         1 MOL1        0.0000
     40  H          92.1446   50.8014  269.9124 H         1 MOL1        0.0000
     41  H          89.5853   48.6236  266.8775 H         1 MOL1        0.0000
     42  H          91.4232   47.5010  263.9726 H         1 MOL1        0.0000
     43  H          88.2775   45.3841  262.3233 H         1 MOL1        0.0000
     44  H          86.8996   45.6560  264.3634 H         1 MOL1        0.0000
     45  H          87.8728   45.6348  268.9986 H         1 MOL1        0.0000
     46  H          89.4116   46.0106  268.1755 H         1 MOL1        0.0000
     47  H          88.3662   44.6870  267.5758 H         1 MOL1        0.0000
     48  H          94.7837   55.6164  270.2260 H         1 MOL1        0.0000
     49  H          92.9998   55.1255  272.1926 H         1 MOL1        0.0000
     50  H          92.0494   51.6144  272.3981 H         1 MOL1        0.0000
@<TRIPOS>BOND
     1      1      4 ar
     2      1      6 ar
     3      1     11 1 
     4      2      3 ar
     5      2      5 ar
     6      3      4 ar
     7      3     15 1 
     8      5      6 ar
     9      5     10 ar
    10      6      7 ar
    11      7      8 ar
    12      8      9 ar
    13      9     10 ar
    14     11     12 ar
    15     11     14 ar
    16     12     13 ar
    17     13     27 ar
    18     14     26 ar
    19     15     16 1 
    20     16     17 ar
    21     16     21 ar
    22     17     18 ar
    23     18     19 ar
    24     19     20 ar
    25     20     21 ar
    26     21     22 1 
    27     22     23 2 
    28     22     24 2 
    29     22     25 1 
    30     26     27 ar
    31     26     30 ar
    32     27     28 ar
    33     28     29 ar
    34     29     30 ar
    35     30     31 1 
    36     31     32 1 
    37     31     33 1 
    38      2     34 1 
    39      4     35 1 
    40      8     36 1 
    41      9     37 1 
    42     12     38 1 
    43     13     39 1 
    44     14     40 1 
    45     15     41 1 
    46     17     42 1 
    47     19     43 1 
    48     20     44 1 
    49     25     45 1 
    50     25     46 1 
    51     25     47 1 
    52     28     48 1 
    53     29     49 1 
    54     31     50 1 
@<TRIPOS>SUBSTRUCTURE
     1 MOL1         1 MOLECULE 1 A  MOL 
# Molecule written by the XED library from Cresset
