@<TRIPOS>MOLECULE
58
    48     52      1
SMALL
USER_CHARGES
@<TRIPOS>ATOM
      1  N          94.8013   46.5214  266.7826 N.ar      1 MOL1        0.0000
      2  N          95.5604   48.9616  267.9505 N.ar      1 MOL1        0.0000
      3  C          96.4513   47.9564  267.7616 C.ar      1 MOL1        0.0000
      4  C          96.0690   46.7404  267.2068 C.ar      1 MOL1        0.0000
      5  C          94.2685   48.7751  267.5275 C.ar      1 MOL1        0.0000
      6  C          93.8968   47.5294  266.9259 C.ar      1 MOL1        0.0000
      7  C          92.5695   47.3323  266.4866 C.ar      1 MOL1        0.0000
      8  C          91.6129   48.3253  266.6755 C.ar      1 MOL1        0.0000
      9  C          91.9685   49.5269  267.2835 C.ar      1 MOL1        0.0000
     10  C          93.2847   49.7945  267.6974 C.ar      1 MOL1        0.0000
     11  C          93.5894   51.1028  268.3276 C.ar      1 MOL1        0.0000
     12  N          90.2782   48.1195  266.3117 N.pl3     1 MOL1        0.0000
     13  C          94.5708   51.9469  267.7831 C.ar      1 MOL1        0.0000
     14  C          94.8595   53.1857  268.3750 C.ar      1 MOL1        0.0000
     15  C          92.9123   51.4978  269.4953 C.ar      1 MOL1        0.0000
     16  C          93.2007   52.7289  270.0653 C.ar      1 MOL1        0.0000
     17  C          94.1307   53.5569  269.5027 C.ar      1 MOL1        0.0000
     18  O          94.3320   54.7281  270.1938 O.3       1 MOL1        0.0000
     19  C          93.3593   54.7303  271.2476 C.3       1 MOL1        0.0000
     20  C          92.7694   53.3637  271.3462 C.3       1 MOL1        0.0000
     21  C          89.7154   47.3416  265.2852 C.ar      1 MOL1        0.0000
     22  C          90.4167   47.1271  264.0903 C.ar      1 MOL1        0.0000
     23  N          89.9109   46.4408  263.0386 N.ar      1 MOL1        0.0000
     24  C          88.6582   45.9328  263.1640 C.ar      1 MOL1        0.0000
     25  C          87.8902   46.0836  264.3159 C.ar      1 MOL1        0.0000
     26  C          88.4237   46.7992  265.3955 C.ar      1 MOL1        0.0000
     27  S          87.4810   46.9013  266.9181 S.3       1 MOL1        0.0000
     28  O          86.1283   46.4027  266.6622 O.2       1 MOL1        0.0000
     29  O          87.6749   48.2444  267.4795 O.2       1 MOL1        0.0000
     30  C          88.3720   45.6610  268.0177 C.3       1 MOL1        0.0000
     31  H          97.4731   48.1493  268.0540 H         1 MOL1        0.0000
     32  H          96.7777   45.9432  267.0489 H         1 MOL1        0.0000
     33  H          92.2898   46.3840  266.0487 H         1 MOL1        0.0000
     34  H          91.2125   50.2818  267.4333 H         1 MOL1        0.0000
     35  H          89.5786   48.5969  266.8753 H         1 MOL1        0.0000
     36  H          95.1133   51.6481  266.8964 H         1 MOL1        0.0000
     37  H          95.6205   53.8235  267.9539 H         1 MOL1        0.0000
     38  H          92.2001   50.8363  269.9501 H         1 MOL1        0.0000
     39  H          92.5718   55.4402  270.9517 H         1 MOL1        0.0000
     40  H          93.7774   55.1040  272.1881 H         1 MOL1        0.0000
     41  H          91.6885   53.3869  271.5159 H         1 MOL1        0.0000
     42  H          93.2195   52.8220  272.1848 H         1 MOL1        0.0000
     43  H          91.4074   47.5284  263.9644 H         1 MOL1        0.0000
     44  H          88.2716   45.3808  262.3215 H         1 MOL1        0.0000
     45  H          86.9028   45.6381  264.3764 H         1 MOL1        0.0000
     46  H          87.8533   45.6063  268.9724 H         1 MOL1        0.0000
     47  H          89.3975   45.9996  268.1589 H         1 MOL1        0.0000
     48  H          88.3561   44.6887  267.5271 H         1 MOL1        0.0000
@<TRIPOS>BOND
     1      1      4 ar
     2      1      6 ar
     3      2      3 ar
     4      2      5 ar
     5      3      4 ar
     6      5      6 ar
     7      5     10 ar
     8      6      7 ar
     9      7      8 ar
    10      8      9 ar
    11      8     12 1 
    12      9     10 ar
    13     10     11 1 
    14     11     13 ar
    15     11     15 ar
    16     12     21 1 
    17     13     14 ar
    18     14     17 ar
    19     15     16 ar
    20     16     17 ar
    21     16     20 1 
    22     17     18 1 
    23     18     19 1 
    24     19     20 1 
    25     21     22 ar
    26     21     26 ar
    27     22     23 ar
    28     23     24 ar
    29     24     25 ar
    30     25     26 ar
    31     26     27 1 
    32     27     28 2 
    33     27     29 2 
    34     27     30 1 
    35      3     31 1 
    36      4     32 1 
    37      7     33 1 
    38      9     34 1 
    39     12     35 1 
    40     13     36 1 
    41     14     37 1 
    42     15     38 1 
    43     19     39 1 
    44     19     40 1 
    45     20     41 1 
    46     20     42 1 
    47     22     43 1 
    48     24     44 1 
    49     25     45 1 
    50     30     46 1 
    51     30     47 1 
    52     30     48 1 
@<TRIPOS>SUBSTRUCTURE
     1 MOL1         1 MOLECULE 1 A  MOL 
# Molecule written by the XED library from Cresset
