@<TRIPOS>MOLECULE
59
    49     53      1
SMALL
USER_CHARGES
@<TRIPOS>ATOM
      1  N          94.8018   46.5109  266.7810 N.ar      1 MOL1        0.0000
      2  N          95.5594   48.9562  267.9425 N.ar      1 MOL1        0.0000
      3  C          96.4498   47.9500  267.7562 C.ar      1 MOL1        0.0000
      4  C          96.0677   46.7343  267.2048 C.ar      1 MOL1        0.0000
      5  C          94.2682   48.7611  267.5159 C.ar      1 MOL1        0.0000
      6  C          93.8962   47.5221  266.9192 C.ar      1 MOL1        0.0000
      7  C          92.5694   47.3244  266.4789 C.ar      1 MOL1        0.0000
      8  C          91.6134   48.3190  266.6708 C.ar      1 MOL1        0.0000
      9  C          91.9660   49.5150  267.2751 C.ar      1 MOL1        0.0000
     10  C          93.2855   49.7790  267.6840 C.ar      1 MOL1        0.0000
     11  C          93.5879   51.0782  268.3122 C.ar      1 MOL1        0.0000
     12  N          90.2737   48.1142  266.3097 N.pl3     1 MOL1        0.0000
     13  C          94.5752   51.9225  267.7816 C.ar      1 MOL1        0.0000
     14  C          94.8653   53.1505  268.3817 C.ar      1 MOL1        0.0000
     15  C          92.8985   51.4691  269.4627 C.ar      1 MOL1        0.0000
     16  C          89.7155   47.3452  265.2853 C.ar      1 MOL1        0.0000
     17  C          90.4138   47.1285  264.0886 C.ar      1 MOL1        0.0000
     18  N          89.9106   46.4419  263.0368 N.ar      1 MOL1        0.0000
     19  C          88.6568   45.9347  263.1618 C.ar      1 MOL1        0.0000
     20  C          87.8874   46.0867  264.3144 C.ar      1 MOL1        0.0000
     21  C          88.4223   46.8005  265.3926 C.ar      1 MOL1        0.0000
     22  S          87.4801   46.8993  266.9179 S.3       1 MOL1        0.0000
     23  O          86.1285   46.4001  266.6610 O.2       1 MOL1        0.0000
     24  O          87.6734   48.2433  267.4795 O.2       1 MOL1        0.0000
     25  C          88.3715   45.6618  268.0181 C.3       1 MOL1        0.0000
     26  C          93.1809   52.6785  270.0639 C.ar      1 MOL1        0.0000
     27  C          94.1584   53.5252  269.5157 C.ar      1 MOL1        0.0000
     28  O          94.4333   54.7672  270.0482 O.3       1 MOL1        0.0000
     29  C          94.0133   54.9117  271.4001 C.3       1 MOL1        0.0000
     30  C          92.5929   54.3553  271.5885 C.3       1 MOL1        0.0000
     31  O          92.5255   52.9762  271.2422 O.3       1 MOL1        0.0000
     32  H          97.4701   48.1438  268.0547 H         1 MOL1        0.0000
     33  H          96.7793   45.9370  267.0484 H         1 MOL1        0.0000
     34  H          92.2874   46.3752  266.0452 H         1 MOL1        0.0000
     35  H          91.2144   50.2757  267.4253 H         1 MOL1        0.0000
     36  H          89.5843   48.5996  266.8791 H         1 MOL1        0.0000
     37  H          95.1184   51.6380  266.8951 H         1 MOL1        0.0000
     38  H          95.6084   53.8097  267.9625 H         1 MOL1        0.0000
     39  H          92.1529   50.8186  269.9099 H         1 MOL1        0.0000
     40  H          91.4082   47.5286  263.9600 H         1 MOL1        0.0000
     41  H          88.2722   45.3793  262.3200 H         1 MOL1        0.0000
     42  H          86.9047   45.6369  264.3727 H         1 MOL1        0.0000
     43  H          88.3558   44.6887  267.5314 H         1 MOL1        0.0000
     44  H          87.8534   45.6061  268.9764 H         1 MOL1        0.0000
     45  H          89.3985   45.9973  268.1617 H         1 MOL1        0.0000
     46  H          94.6915   54.3763  272.0652 H         1 MOL1        0.0000
     47  H          94.0495   55.9651  271.6740 H         1 MOL1        0.0000
     48  H          91.9903   54.9200  270.8846 H         1 MOL1        0.0000
     49  H          92.1930   54.5411  272.5851 H         1 MOL1        0.0000
@<TRIPOS>BOND
     1      1      4 ar
     2      1      6 ar
     3      2      3 ar
     4      2      5 ar
     5      3      4 ar
     6      5      6 ar
     7      5     10 ar
     8      6      7 ar
     9      7      8 ar
    10      8      9 ar
    11      8     12 1 
    12      9     10 ar
    13     10     11 1 
    14     11     13 ar
    15     11     15 ar
    16     12     16 1 
    17     13     14 ar
    18     14     27 ar
    19     15     26 ar
    20     16     17 ar
    21     16     21 ar
    22     17     18 ar
    23     18     19 ar
    24     19     20 ar
    25     20     21 ar
    26     21     22 1 
    27     22     23 2 
    28     22     24 2 
    29     22     25 1 
    30     26     27 ar
    31     26     31 1 
    32     27     28 1 
    33     28     29 1 
    34     29     30 1 
    35     30     31 1 
    36      3     32 1 
    37      4     33 1 
    38      7     34 1 
    39      9     35 1 
    40     12     36 1 
    41     13     37 1 
    42     14     38 1 
    43     15     39 1 
    44     17     40 1 
    45     19     41 1 
    46     20     42 1 
    47     25     43 1 
    48     25     44 1 
    49     25     45 1 
    50     29     46 1 
    51     29     47 1 
    52     30     48 1 
    53     30     49 1 
@<TRIPOS>SUBSTRUCTURE
     1 MOL1         1 MOLECULE 1 A  MOL 
# Molecule written by the XED library from Cresset
