@<TRIPOS>MOLECULE
64
    45     49      1
SMALL
USER_CHARGES
@<TRIPOS>ATOM
      1  C          92.5649   47.3357  266.4780 C.ar      1 MOL1        0.0000
      2  C          91.6096   48.3267  266.6685 C.ar      1 MOL1        0.0000
      3  C          91.9706   49.5255  267.2755 C.ar      1 MOL1        0.0000
      4  C          93.2850   49.7849  267.6889 C.ar      1 MOL1        0.0000
      5  C          93.8962   47.5315  266.9149 C.ar      1 MOL1        0.0000
      6  C          94.2730   48.7725  267.5157 C.ar      1 MOL1        0.0000
      7  N          95.5623   48.9611  267.9441 N.ar      1 MOL1        0.0000
      8  C          96.4530   47.9549  267.7607 C.ar      1 MOL1        0.0000
      9  C          96.0604   46.7398  267.2043 C.ar      1 MOL1        0.0000
     10  N          94.8009   46.5220  266.7799 N.ar      1 MOL1        0.0000
     11  C          93.5830   51.0799  268.3394 C.ar      1 MOL1        0.0000
     12  C          94.5627   51.9319  267.8062 C.ar      1 MOL1        0.0000
     13  C          94.8597   53.1715  268.3735 C.ar      1 MOL1        0.0000
     14  C          92.8765   51.4421  269.4882 C.ar      1 MOL1        0.0000
     15  C          93.1675   52.6783  270.0741 C.ar      1 MOL1        0.0000
     16  C          94.1347   53.5526  269.5062 C.ar      1 MOL1        0.0000
     17  N          94.3115   54.7222  270.1528 N.ar      1 MOL1        0.0000
     18  C          93.5858   54.7561  271.2381 C.ar      1 MOL1        0.0000
     19  S          92.5123   53.4088  271.5255 S.3       1 MOL1        0.0000
     20  N          90.2697   48.1142  266.3114 N.pl3     1 MOL1        0.0000
     21  C          89.7130   47.3380  265.2849 C.ar      1 MOL1        0.0000
     22  C          88.4197   46.7984  265.3938 C.ar      1 MOL1        0.0000
     23  C          87.8833   46.0898  264.3143 C.ar      1 MOL1        0.0000
     24  C          88.6520   45.9437  263.1599 C.ar      1 MOL1        0.0000
     25  N          89.9057   46.4470  263.0359 N.ar      1 MOL1        0.0000
     26  C          90.4150   47.1276  264.0943 C.ar      1 MOL1        0.0000
     27  S          87.4814   46.8888  266.9221 S.3       1 MOL1        0.0000
     28  O          86.1277   46.3901  266.6642 O.2       1 MOL1        0.0000
     29  O          87.6791   48.2295  267.4834 O.2       1 MOL1        0.0000
     30  C          88.3741   45.6337  268.0075 C.3       1 MOL1        0.0000
     31  H          92.2772   46.3870  266.0471 H         1 MOL1        0.0000
     32  H          91.2167   50.2829  267.4282 H         1 MOL1        0.0000
     33  H          97.4752   48.1511  268.0450 H         1 MOL1        0.0000
     34  H          96.7724   45.9411  267.0336 H         1 MOL1        0.0000
     35  H          95.0979   51.6436  266.9149 H         1 MOL1        0.0000
     36  H          95.6126   53.8190  267.9423 H         1 MOL1        0.0000
     37  H          92.1404   50.7736  269.9238 H         1 MOL1        0.0000
     38  H          93.6220   55.5864  271.9137 H         1 MOL1        0.0000
     39  H          89.5638   48.5895  266.8627 H         1 MOL1        0.0000
     40  H          86.9016   45.6396  264.3864 H         1 MOL1        0.0000
     41  H          88.2700   45.3840  262.3199 H         1 MOL1        0.0000
     42  H          91.4114   47.5220  263.9807 H         1 MOL1        0.0000
     43  H          87.8479   45.5178  268.9550 H         1 MOL1        0.0000
     44  H          89.3964   45.9846  268.1559 H         1 MOL1        0.0000
     45  H          88.3682   44.6731  267.4983 H         1 MOL1        0.0000
@<TRIPOS>BOND
     1      1      2 ar
     2      1      5 ar
     3      2      3 ar
     4      2     20 1 
     5      3      4 ar
     6      4      6 ar
     7      4     11 1 
     8      5      6 ar
     9      5     10 ar
    10      6      7 ar
    11      7      8 ar
    12      8      9 ar
    13      9     10 ar
    14     11     12 ar
    15     11     14 ar
    16     12     13 ar
    17     13     16 ar
    18     14     15 ar
    19     15     16 ar
    20     15     19 ar
    21     16     17 ar
    22     17     18 ar
    23     18     19 ar
    24     20     21 1 
    25     21     22 ar
    26     21     26 ar
    27     22     23 ar
    28     22     27 1 
    29     23     24 ar
    30     24     25 ar
    31     25     26 ar
    32     27     28 2 
    33     27     29 2 
    34     27     30 1 
    35      1     31 1 
    36      3     32 1 
    37      8     33 1 
    38      9     34 1 
    39     12     35 1 
    40     13     36 1 
    41     14     37 1 
    42     18     38 1 
    43     20     39 1 
    44     23     40 1 
    45     24     41 1 
    46     26     42 1 
    47     30     43 1 
    48     30     44 1 
    49     30     45 1 
@<TRIPOS>SUBSTRUCTURE
     1 MOL1         1 MOLECULE 1 A  MOL 
# Molecule written by the XED library from Cresset
