@<TRIPOS>MOLECULE
65
    45     49      1
SMALL
USER_CHARGES
@<TRIPOS>ATOM
      1  C          93.2872   49.7956  267.6944 C.ar      1 MOL1        0.0000
      2  C          92.5687   47.3376  266.4857 C.ar      1 MOL1        0.0000
      3  C          91.6146   48.3304  266.6749 C.ar      1 MOL1        0.0000
      4  C          91.9729   49.5341  267.2821 C.ar      1 MOL1        0.0000
      5  C          93.8980   47.5350  266.9247 C.ar      1 MOL1        0.0000
      6  C          94.2694   48.7811  267.5256 C.ar      1 MOL1        0.0000
      7  N          95.5628   48.9608  267.9474 N.ar      1 MOL1        0.0000
      8  C          96.4512   47.9559  267.7583 C.ar      1 MOL1        0.0000
      9  C          96.0630   46.7394  267.2050 C.ar      1 MOL1        0.0000
     10  N          94.7992   46.5230  266.7822 N.ar      1 MOL1        0.0000
     11  C          89.7144   47.3441  265.2867 C.ar      1 MOL1        0.0000
     12  C          90.4092   47.1460  264.0888 C.ar      1 MOL1        0.0000
     13  N          89.9096   46.4507  263.0377 N.ar      1 MOL1        0.0000
     14  C          88.6543   45.9413  263.1622 C.ar      1 MOL1        0.0000
     15  C          87.8854   46.0879  264.3158 C.ar      1 MOL1        0.0000
     16  C          88.4232   46.7977  265.3980 C.ar      1 MOL1        0.0000
     17  S          87.4784   46.8853  266.9220 S.3       1 MOL1        0.0000
     18  O          86.1276   46.3963  266.6637 O.2       1 MOL1        0.0000
     19  C          88.3703   45.6287  268.0030 C.3       1 MOL1        0.0000
     20  O          87.6747   48.2291  267.4910 O.2       1 MOL1        0.0000
     21  N          90.2732   48.1194  266.3138 N.pl3     1 MOL1        0.0000
     22  C          93.5885   51.1029  268.3430 C.ar      1 MOL1        0.0000
     23  C          94.5710   51.9460  267.8128 C.ar      1 MOL1        0.0000
     24  C          94.8648   53.1857  268.4025 C.ar      1 MOL1        0.0000
     25  C          92.8911   51.4690  269.4891 C.ar      1 MOL1        0.0000
     26  C          93.1676   52.6956  270.0909 C.ar      1 MOL1        0.0000
     27  C          94.1496   53.5503  269.5479 C.ar      1 MOL1        0.0000
     28  S          94.2519   54.9826  270.5782 S.3       1 MOL1        0.0000
     29  C          93.0165   54.3044  271.5748 C.ar      1 MOL1        0.0000
     30  N          92.5431   53.1496  271.2157 N.ar      1 MOL1        0.0000
     31  H          92.2833   46.3865  266.0493 H         1 MOL1        0.0000
     32  H          91.2132   50.2842  267.4310 H         1 MOL1        0.0000
     33  H          97.4754   48.1488  268.0479 H         1 MOL1        0.0000
     34  H          96.7730   45.9425  267.0418 H         1 MOL1        0.0000
     35  H          91.4107   47.5215  263.9722 H         1 MOL1        0.0000
     36  H          88.2682   45.3847  262.3195 H         1 MOL1        0.0000
     37  H          86.9002   45.6358  264.3812 H         1 MOL1        0.0000
     38  H          87.8462   45.5122  268.9561 H         1 MOL1        0.0000
     39  H          89.3922   45.9759  268.1641 H         1 MOL1        0.0000
     40  H          88.3733   44.6715  267.4858 H         1 MOL1        0.0000
     41  H          89.5715   48.5931  266.8725 H         1 MOL1        0.0000
     42  H          95.0968   51.6566  266.9236 H         1 MOL1        0.0000
     43  H          95.6212   53.8241  267.9680 H         1 MOL1        0.0000
     44  H          92.1446   50.8081  269.9236 H         1 MOL1        0.0000
     45  H          92.6755   54.8393  272.4460 H         1 MOL1        0.0000
@<TRIPOS>BOND
     1      1      4 ar
     2      1      6 ar
     3      1     22 1 
     4      2      3 ar
     5      2      5 ar
     6      3      4 ar
     7      3     21 1 
     8      5      6 ar
     9      5     10 ar
    10      6      7 ar
    11      7      8 ar
    12      8      9 ar
    13      9     10 ar
    14     11     12 ar
    15     11     16 ar
    16     11     21 1 
    17     12     13 ar
    18     13     14 ar
    19     14     15 ar
    20     15     16 ar
    21     16     17 1 
    22     17     18 2 
    23     17     19 1 
    24     17     20 2 
    25     22     23 ar
    26     22     25 ar
    27     23     24 ar
    28     24     27 ar
    29     25     26 ar
    30     26     27 ar
    31     26     30 ar
    32     27     28 ar
    33     28     29 ar
    34     29     30 ar
    35      2     31 1 
    36      4     32 1 
    37      8     33 1 
    38      9     34 1 
    39     12     35 1 
    40     14     36 1 
    41     15     37 1 
    42     19     38 1 
    43     19     39 1 
    44     19     40 1 
    45     21     41 1 
    46     23     42 1 
    47     24     43 1 
    48     25     44 1 
    49     29     45 1 
@<TRIPOS>SUBSTRUCTURE
     1 MOL1         1 MOLECULE 1 A  MOL 
# Molecule written by the XED library from Cresset
