@<TRIPOS>MOLECULE
68
    48     52      1
SMALL
USER_CHARGES
@<TRIPOS>ATOM
      1  C          92.5906   47.2900  266.3444 C.ar      1 MOL1        0.0000
      2  C          91.5700   48.2152  266.5159 C.ar      1 MOL1        0.0000
      3  C          91.8167   49.4248  267.1546 C.ar      1 MOL1        0.0000
      4  C          93.0889   49.7623  267.6341 C.ar      1 MOL1        0.0000
      5  C          93.8920   47.5770  266.8285 C.ar      1 MOL1        0.0000
      6  C          94.1480   48.8244  267.4865 C.ar      1 MOL1        0.0000
      7  N          95.3850   49.0832  268.0127 N.ar      1 MOL1        0.0000
      8  C          96.3430   48.1354  267.8658 C.ar      1 MOL1        0.0000
      9  C          96.0897   46.9257  267.2216 C.ar      1 MOL1        0.0000
     10  N          94.8705   46.6478  266.6904 N.ar      1 MOL1        0.0000
     11  C          93.2613   51.0285  268.3807 C.ar      1 MOL1        0.0000
     12  N          90.2520   47.9338  266.1399 N.pl3     1 MOL1        0.0000
     13  C          89.7015   47.1928  265.0832 C.ar      1 MOL1        0.0000
     14  C          90.4532   46.9549  263.9209 C.ar      1 MOL1        0.0000
     15  N          89.9543   46.3298  262.8373 N.ar      1 MOL1        0.0000
     16  C          88.6785   45.8812  262.8956 C.ar      1 MOL1        0.0000
     17  C          87.8678   46.0387  264.0101 C.ar      1 MOL1        0.0000
     18  C          88.3733   46.7249  265.1240 C.ar      1 MOL1        0.0000
     19  S          87.3145   46.9352  266.5561 S.3       1 MOL1        0.0000
     20  O          87.5375   48.2780  267.1027 O.2       1 MOL1        0.0000
     21  O          85.9614   46.5209  266.1752 O.2       1 MOL1        0.0000
     22  C          88.0033   45.6830  267.7810 C.3       1 MOL1        0.0000
     23  C          94.2676   51.9515  268.0760 C.ar      1 MOL1        0.0000
     24  C          94.4607   53.0907  268.8507 C.ar      1 MOL1        0.0000
     25  C          92.4286   51.2390  269.4665 C.ar      1 MOL1        0.0000
     26  C          92.6104   52.3297  270.2980 C.ar      1 MOL1        0.0000
     27  C          93.6343   53.2671  269.9747 C.ar      1 MOL1        0.0000
     28  S          93.6567   54.5790  271.1456 S.3       1 MOL1        0.0000
     29  C          92.4470   53.7602  272.0760 C.ar      1 MOL1        0.0000
     30  C          91.9259   52.6515  271.4883 C.ar      1 MOL1        0.0000
     31  N          92.0631   54.2673  273.2653 N.pl3     1 MOL1        0.0000
     32  H          92.3935   46.3273  265.8991 H         1 MOL1        0.0000
     33  H          90.9990   50.1186  267.2856 H         1 MOL1        0.0000
     34  H          97.3205   48.3625  268.2827 H         1 MOL1        0.0000
     35  H          96.8504   46.1676  267.1458 H         1 MOL1        0.0000
     36  H          89.5363   48.3371  266.7430 H         1 MOL1        0.0000
     37  H          91.4671   47.3133  263.8480 H         1 MOL1        0.0000
     38  H          88.3025   45.3523  262.0332 H         1 MOL1        0.0000
     39  H          86.8652   45.6243  264.0193 H         1 MOL1        0.0000
     40  H          87.4147   45.7414  268.6992 H         1 MOL1        0.0000
     41  H          89.0405   45.9170  267.9869 H         1 MOL1        0.0000
     42  H          87.9100   44.6873  267.3523 H         1 MOL1        0.0000
     43  H          94.9129   51.7823  267.2255 H         1 MOL1        0.0000
     44  H          95.2369   53.8087  268.6088 H         1 MOL1        0.0000
     45  H          91.6707   50.5120  269.7113 H         1 MOL1        0.0000
     46  H          91.1413   52.0603  271.9230 H         1 MOL1        0.0000
     47  H          92.2887   55.2418  273.4713 H         1 MOL1        0.0000
     48  H          91.1958   53.9428  273.7133 H         1 MOL1        0.0000
@<TRIPOS>BOND
     1      1      2 ar
     2      1      5 ar
     3      2      3 ar
     4      2     12 1 
     5      3      4 ar
     6      4      6 ar
     7      4     11 1 
     8      5      6 ar
     9      5     10 ar
    10      6      7 ar
    11      7      8 ar
    12      8      9 ar
    13      9     10 ar
    14     11     23 ar
    15     11     25 ar
    16     12     13 1 
    17     13     14 ar
    18     13     18 ar
    19     14     15 ar
    20     15     16 ar
    21     16     17 ar
    22     17     18 ar
    23     18     19 1 
    24     19     20 2 
    25     19     21 2 
    26     19     22 1 
    27     23     24 ar
    28     24     27 ar
    29     25     26 ar
    30     26     27 ar
    31     26     30 ar
    32     27     28 ar
    33     28     29 ar
    34     29     30 ar
    35     29     31 1 
    36      1     32 1 
    37      3     33 1 
    38      8     34 1 
    39      9     35 1 
    40     12     36 1 
    41     14     37 1 
    42     16     38 1 
    43     17     39 1 
    44     22     40 1 
    45     22     41 1 
    46     22     42 1 
    47     23     43 1 
    48     24     44 1 
    49     25     45 1 
    50     30     46 1 
    51     31     47 1 
    52     31     48 1 
@<TRIPOS>SUBSTRUCTURE
     1 MOL1         1 MOLECULE 1 A  MOL 
# Molecule written by the XED library from Cresset
