@<TRIPOS>MOLECULE
70
    49     53      1
SMALL
USER_CHARGES
@<TRIPOS>ATOM
      1  C          92.5684   47.3375  266.4935 C.ar      1 MOL1        0.0000
      2  C          91.6136   48.3329  266.6765 C.ar      1 MOL1        0.0000
      3  C          91.9733   49.5322  267.2840 C.ar      1 MOL1        0.0000
      4  C          93.2855   49.7940  267.6992 C.ar      1 MOL1        0.0000
      5  C          93.8953   47.5338  266.9323 C.ar      1 MOL1        0.0000
      6  C          94.2739   48.7755  267.5320 C.ar      1 MOL1        0.0000
      7  N          95.5614   48.9635  267.9567 N.ar      1 MOL1        0.0000
      8  C          96.4518   47.9561  267.7687 C.ar      1 MOL1        0.0000
      9  C          96.0633   46.7420  267.2148 C.ar      1 MOL1        0.0000
     10  N          94.7981   46.5237  266.7912 N.ar      1 MOL1        0.0000
     11  C          93.5930   51.0971  268.3380 C.ar      1 MOL1        0.0000
     12  C          94.5710   51.9416  267.7904 C.ar      1 MOL1        0.0000
     13  C          94.8596   53.1861  268.3482 C.ar      1 MOL1        0.0000
     14  C          92.9081   51.4764  269.4973 C.ar      1 MOL1        0.0000
     15  C          93.1896   52.7106  270.0994 C.ar      1 MOL1        0.0000
     16  C          94.1337   53.5561  269.4819 C.ar      1 MOL1        0.0000
     17  O          94.2615   54.7258  270.1672 O.3       1 MOL1        0.0000
     18  C          93.4410   54.6109  271.2476 C.ar      1 MOL1        0.0000
     19  C          92.7688   53.3968  271.2795 C.ar      1 MOL1        0.0000
     20  N          90.2757   48.1225  266.3107 N.pl3     1 MOL1        0.0000
     21  C          91.8224   52.8717  272.3311 C.3       1 MOL1        0.0000
     22  C          89.7186   47.3442  265.2867 C.ar      1 MOL1        0.0000
     23  C          88.4245   46.7994  265.3959 C.ar      1 MOL1        0.0000
     24  C          87.8911   46.0836  264.3198 C.ar      1 MOL1        0.0000
     25  C          88.6587   45.9347  263.1648 C.ar      1 MOL1        0.0000
     26  N          89.9086   46.4447  263.0371 N.ar      1 MOL1        0.0000
     27  C          90.4154   47.1288  264.0910 C.ar      1 MOL1        0.0000
     28  S          87.4827   46.9058  266.9203 S.3       1 MOL1        0.0000
     29  O          86.1267   46.4095  266.6609 O.2       1 MOL1        0.0000
     30  O          87.6798   48.2451  267.4815 O.2       1 MOL1        0.0000
     31  C          88.3687   45.6595  268.0155 C.3       1 MOL1        0.0000
     32  H          92.2904   46.3890  266.0570 H         1 MOL1        0.0000
     33  H          91.2163   50.2898  267.4341 H         1 MOL1        0.0000
     34  H          97.4746   48.1493  268.0556 H         1 MOL1        0.0000
     35  H          96.7729   45.9426  267.0563 H         1 MOL1        0.0000
     36  H          95.1085   51.6288  266.9063 H         1 MOL1        0.0000
     37  H          95.6078   53.8357  267.9219 H         1 MOL1        0.0000
     38  H          92.1810   50.8180  269.9489 H         1 MOL1        0.0000
     39  H          93.4544   55.4578  271.9264 H         1 MOL1        0.0000
     40  H          89.5785   48.5935  266.8778 H         1 MOL1        0.0000
     41  H          90.8419   52.6483  271.9125 H         1 MOL1        0.0000
     42  H          91.6772   53.5934  273.1357 H         1 MOL1        0.0000
     43  H          92.2075   51.9568  272.7843 H         1 MOL1        0.0000
     44  H          86.9075   45.6346  264.3807 H         1 MOL1        0.0000
     45  H          88.2723   45.3818  262.3229 H         1 MOL1        0.0000
     46  H          91.4056   47.5358  263.9631 H         1 MOL1        0.0000
     47  H          87.8495   45.6002  268.9694 H         1 MOL1        0.0000
     48  H          89.3946   45.9969  268.1579 H         1 MOL1        0.0000
     49  H          88.3540   44.6896  267.5192 H         1 MOL1        0.0000
@<TRIPOS>BOND
     1      1      2 ar
     2      1      5 ar
     3      2      3 ar
     4      2     20 1 
     5      3      4 ar
     6      4      6 ar
     7      4     11 1 
     8      5      6 ar
     9      5     10 ar
    10      6      7 ar
    11      7      8 ar
    12      8      9 ar
    13      9     10 ar
    14     11     12 ar
    15     11     14 ar
    16     12     13 ar
    17     13     16 ar
    18     14     15 ar
    19     15     16 ar
    20     15     19 ar
    21     16     17 ar
    22     17     18 ar
    23     18     19 ar
    24     19     21 1 
    25     20     22 1 
    26     22     23 ar
    27     22     27 ar
    28     23     24 ar
    29     23     28 1 
    30     24     25 ar
    31     25     26 ar
    32     26     27 ar
    33     28     29 2 
    34     28     30 2 
    35     28     31 1 
    36      1     32 1 
    37      3     33 1 
    38      8     34 1 
    39      9     35 1 
    40     12     36 1 
    41     13     37 1 
    42     14     38 1 
    43     18     39 1 
    44     20     40 1 
    45     21     41 1 
    46     21     42 1 
    47     21     43 1 
    48     24     44 1 
    49     25     45 1 
    50     27     46 1 
    51     31     47 1 
    52     31     48 1 
    53     31     49 1 
@<TRIPOS>SUBSTRUCTURE
     1 MOL1         1 MOLECULE 1 A  MOL 
# Molecule written by the XED library from Cresset
